3GUP_0PY_A_501
  RCSB PDB12061708473D
Coordinates from PDB:3GUP:A:501 Model:1 without hydrogens
  6  6  0  0  0  0            999 V2000
   -9.8290    0.3780   60.5300   C 0  0  0  0  0  0  0  0  0  0  0  0
   -8.5550    0.1620   60.9190   N 0  0  0  0  0  0  0  0  0  0  0  0
  -10.8980   -0.4180   61.0250   C 0  0  0  0  0  0  0  0  0  0  0  0
  -10.6070   -1.4490   61.8880   C 0  0  0  0  0  0  0  0  0  0  0  0
   -9.2920   -1.6610   62.2380   C 0  0  0  0  0  0  0  0  0  0  0  0
   -8.2650   -0.8410   61.7870   C 0  0  0  0  0  0  0  0  0  0  0  0
  3  1  2  0  0  0  0
  2  1  1  0  0  0  0
  6  2  2  0  0  0  0
  4  3  1  0  0  0  0
  5  4  2  0  0  0  0
  5  6  1  0  0  0  0
M  END
>  <InstanceId>
3GUP_0PY_A_501

>  <ChemCompId>
0PY

>  <PdbId>
3GUP

>  <ChainId>
A

>  <ResidueNumber>
501

>  <InsertionCode>


>  <Model>
1

>  <AltIds>


>  <MissingHeavyAtoms>
0

>  <ObservedFormula>
C5 N

>  <Name>
pyridine

>  <SystematicName>
pyridine

>  <Synonyms>
Azabenzene, Azine

>  <Type>
NON-POLYMER

>  <Formula>
C5 H5 N

>  <MolecularWeight>
79.1

>  <ModifiedDate>
2011-06-04

>  <Parent>


>  <OneLetterCode>


>  <SubcomponentList>


>  <AmbiguousFlag>
N

>  <InChI>
InChI=1S/C5H5N/c1-2-4-6-5-3-1/h1-5H

>  <InChIKey>
JUJWROOIHBZHMG-UHFFFAOYSA-N

>  <SMILES>
c1ccncc1

$$$$
4EKR_0R0_A_202
  RCSB PDB12061712243D
Coordinates from PDB:4EKR:A:202 Model:1 without hydrogens
  9  9  0  0  0  0            999 V2000
    5.8560   11.0710   -0.5480   N 0  0  0  0  0  0  0  0  0  0  0  0
    5.0550   10.4110   -0.0720   C 0  0  0  0  0  0  0  0  0  0  0  0
    4.0640    9.5890    0.5340   C 0  0  0  0  0  0  0  0  0  0  0  0
    3.4790    8.5510   -0.1560   C 0  0  0  0  0  0  0  0  0  0  0  0
    2.4970    7.7640    0.4340   C 0  0  0  0  0  0  0  0  0  0  0  0
    2.0730    8.0260    1.7300   C 0  0  0  0  0  0  0  0  0  0  0  0
    2.6530    9.0700    2.4360   C 0  0  0  0  0  0  0  0  0  0  0  0
    3.6500    9.8450    1.8290   C 0  0  0  0  0  0  0  0  0  0  0  0
    4.2430   10.8410    2.5140   O 0  0  0  0  0  0  0  0  0  0  0  0
  1  2  3  0  0  0  0
  4  5  2  0  0  0  0
  4  3  1  0  0  0  0
  2  3  1  0  0  0  0
  5  6  1  0  0  0  0
  3  8  2  0  0  0  0
  6  7  2  0  0  0  0
  8  7  1  0  0  0  0
  8  9  1  0  0  0  0
M  END
>  <InstanceId>
4EKR_0R0_A_202

>  <ChemCompId>
0R0

>  <PdbId>
4EKR

>  <ChainId>
A

>  <ResidueNumber>
202

>  <InsertionCode>


>  <Model>
1

>  <AltIds>


>  <MissingHeavyAtoms>
0

>  <ObservedFormula>
C7 N O

>  <Name>
2-hydroxybenzonitrile

>  <SystematicName>
2-oxidanylbenzenecarbonitrile

>  <Synonyms>
2-Cyanophenol

>  <Type>
NON-POLYMER

>  <Formula>
C7 H5 N O

>  <MolecularWeight>
119.121

>  <ModifiedDate>
2012-08-31

>  <Parent>


>  <OneLetterCode>


>  <SubcomponentList>


>  <AmbiguousFlag>
N

>  <InChI>
InChI=1S/C7H5NO/c8-5-6-3-1-2-4-7(6)9/h1-4,9H

>  <InChIKey>
CHZCERSEMVWNHL-UHFFFAOYSA-N

>  <SMILES>
c1ccc(c(c1)C#N)O

$$$$
4EKS_0R1_A_202
  RCSB PDB12061712243D
Coordinates from PDB:4EKS:A:202 Model:1 without hydrogens
  9 10  0  0  0  0            999 V2000
    3.6990    8.4060    0.6120   C 0  0  0  0  0  0  0  0  0  0  0  0
    2.8980    7.3000    0.4400   C 0  0  0  0  0  0  0  0  0  0  0  0
    1.7900    7.1450    1.2590   C 0  0  0  0  0  0  0  0  0  0  0  0
    1.4880    8.0820    2.2410   C 0  0  0  0  0  0  0  0  0  0  0  0
    2.2950    9.1980    2.4120   C 0  0  0  0  0  0  0  0  0  0  0  0
    3.4000    9.3520    1.5940   C 0  0  0  0  0  0  0  0  0  0  0  0
    4.3240   10.2990    1.5420   C 0  0  0  0  0  0  0  0  0  0  0  0
    5.1910   10.0050    0.5830   N 0  0  0  0  0  0  0  0  0  0  0  0
    4.8100    8.8250   -0.0240   O 0  0  0  0  0  0  0  0  0  0  0  0
  2  3  2  0  0  0  0
  2  1  1  0  0  0  0
  9  1  1  0  0  0  0
  9  8  1  0  0  0  0
  3  4  1  0  0  0  0
  1  6  2  0  0  0  0
  8  7  2  0  0  0  0
  4  5  2  0  0  0  0
  6  7  1  0  0  0  0
  6  5  1  0  0  0  0
M  END
>  <InstanceId>
4EKS_0R1_A_202

>  <ChemCompId>
0R1

>  <PdbId>
4EKS

>  <ChainId>
A

>  <ResidueNumber>
202

>  <InsertionCode>


>  <Model>
1

>  <AltIds>


>  <MissingHeavyAtoms>
0

>  <ObservedFormula>
C7 N O

>  <Name>
1,2-benzisoxazole

>  <SystematicName>
1,2-benzoxazole

>  <Synonyms>


>  <Type>
NON-POLYMER

>  <Formula>
C7 H5 N O

>  <MolecularWeight>
119.121

>  <ModifiedDate>
2012-08-31

>  <Parent>


>  <OneLetterCode>


>  <SubcomponentList>


>  <AmbiguousFlag>
N

>  <InChI>
InChI=1S/C7H5NO/c1-2-4-7-6(3-1)5-8-9-7/h1-5H

>  <InChIKey>
KTZQTRPPVKQPFO-UHFFFAOYSA-N

>  <SMILES>
c1ccc2c(c1)cno2

$$$$
1LGW_1AN_A_401
  RCSB PDB12061703113D
Coordinates from PDB:1LGW:A:401 Model:1 without hydrogens
  8  8  0  0  0  0            999 V2000
   26.0520    5.6090    5.5940   C 0  0  0  0  0  0  0  0  0  0  0  0
   26.7970    6.7770    5.7660   C 0  0  0  0  0  0  0  0  0  0  0  0
   26.1130    5.0130    4.3400   C 0  0  0  0  0  0  0  0  0  0  0  0
   27.5720    7.3600    4.7520   C 0  0  0  0  0  0  0  0  0  0  0  0
   26.9300    5.5430    3.3420   C 0  0  0  0  0  0  0  0  0  0  0  0
   27.6380    6.7380    3.5080   C 0  0  0  0  0  0  0  0  0  0  0  0
   28.4580    7.2140    2.5000   N 0  0  0  0  0  0  0  0  0  0  0  0
   26.9420    4.9350    2.2100   F 0  0  0  0  0  0  0  0  0  0  0  0
  1  2  2  0  0  0  0
  1  3  1  0  0  0  0
  2  4  1  0  0  0  0
  3  5  2  0  0  0  0
  4  6  2  0  0  0  0
  5  6  1  0  0  0  0
  5  8  1  0  0  0  0
  6  7  1  0  0  0  0
M  END
>  <InstanceId>
1LGW_1AN_A_401

>  <ChemCompId>
1AN

>  <PdbId>
1LGW

>  <ChainId>
A

>  <ResidueNumber>
401

>  <InsertionCode>


>  <Model>
1

>  <AltIds>


>  <MissingHeavyAtoms>
0

>  <ObservedFormula>
C6 N F

>  <Name>
2-FLUOROANILINE

>  <SystematicName>
2-fluoroaniline

>  <Synonyms>


>  <Type>
NON-POLYMER

>  <Formula>
C6 H6 F N

>  <MolecularWeight>
111.117

>  <ModifiedDate>
2011-06-04

>  <Parent>


>  <OneLetterCode>


>  <SubcomponentList>


>  <AmbiguousFlag>
N

>  <InChI>
InChI=1S/C6H6FN/c7-5-3-1-2-4-6(5)8/h1-4H,8H2

>  <InChIKey>
FTZQXOJYPFINKJ-UHFFFAOYSA-N

>  <SMILES>
c1ccc(c(c1)N)F

$$$$
4I7O_1DH_A_202
  RCSB PDB12061712583D
Coordinates from PDB:4I7O:A:202 Model:1 without hydrogens
  7  7  0  0  0  0            999 V2000
    4.0190   10.3150    1.9410   N 0  0  0  0  0  0  0  0  0  0  0  0
    2.9740    9.4820    2.0980   C 0  0  0  0  0  0  0  0  0  0  0  0
    2.9650    8.4580    1.2400   C 0  0  0  0  0  0  0  0  0  0  0  0
    1.7610    7.2250    1.1940  Cl 0  0  0  0  0  0  0  0  0  0  0  0
    4.2970    8.5700    0.2320   S 0  0  0  0  0  0  0  0  0  0  0  0
    4.8490    9.9730    0.9550   C 0  0  0  0  0  0  0  0  0  0  0  0
    5.9340   10.6490    0.6060   N 0  0  0  0  0  0  0  0  0  0  0  0
  5  6  1  0  0  0  0
  5  3  1  0  0  0  0
  7  6  1  0  0  0  0
  6  1  2  0  0  0  0
  4  3  1  0  0  0  0
  3  2  2  0  0  0  0
  1  2  1  0  0  0  0
M  END
>  <InstanceId>
4I7O_1DH_A_202

>  <ChemCompId>
1DH

>  <PdbId>
4I7O

>  <ChainId>
A

>  <ResidueNumber>
202

>  <InsertionCode>


>  <Model>
1

>  <AltIds>


>  <MissingHeavyAtoms>
0

>  <ObservedFormula>
C3 N2 S Cl

>  <Name>
5-chloro-1,3-thiazol-2-amine

>  <SystematicName>
5-chloranyl-1,3-thiazol-2-amine

>  <Synonyms>


>  <Type>
NON-POLYMER

>  <Formula>
C3 H3 Cl N2 S

>  <MolecularWeight>
134.587

>  <ModifiedDate>
2013-03-22

>  <Parent>


>  <OneLetterCode>


>  <SubcomponentList>


>  <AmbiguousFlag>
N

>  <InChI>
InChI=1S/C3H3ClN2S/c4-2-1-6-3(5)7-2/h1H,(H2,5,6)

>  <InChIKey>
SWQWTDAWUSBMGA-UHFFFAOYSA-N

>  <SMILES>
c1c(sc(n1)N)Cl

$$$$
4I7N_1DJ_A_202
  RCSB PDB12061712583D
Coordinates from PDB:4I7N:A:202 Model:1 without hydrogens
 10 10  0  0  0  0            999 V2000
    3.9860    7.9680    0.2510   C 0  0  0  0  0  0  0  0  0  0  0  0
    2.8150    7.1960    0.4710   C 0  0  0  0  0  0  0  0  0  0  0  0
    1.8070    7.6360    1.3050   C 0  0  0  0  0  0  0  0  0  0  0  0
    2.0030    8.8430    1.9820   C 0  0  0  0  0  0  0  0  0  0  0  0
    3.1440    9.6130    1.7880   C 0  0  0  0  0  0  0  0  0  0  0  0
    4.1560    9.1900    0.9010   C 0  0  0  0  0  0  0  0  0  0  0  0
    5.3460    9.9740    0.6590   C 0  0  0  0  0  0  0  0  0  0  0  0
    5.6600   10.7310    1.8510   O 0  0  0  0  0  0  0  0  0  0  0  0
    5.1650   10.9020   -0.4730   C 0  0  0  0  0  0  0  0  0  0  0  0
    4.9360   11.6950   -1.3940   C 0  0  0  0  0  0  0  0  0  0  0  0
 10  9  3  0  0  0  0
  9  7  1  0  0  0  0
  1  2  2  0  0  0  0
  1  6  1  0  0  0  0
  2  3  1  0  0  0  0
  7  6  1  0  0  0  0
  7  8  1  0  0  0  0
  6  5  2  0  0  0  0
  3  4  2  0  0  0  0
  5  4  1  0  0  0  0
M  END
>  <InstanceId>
4I7N_1DJ_A_202

>  <ChemCompId>
1DJ

>  <PdbId>
4I7N

>  <ChainId>
A

>  <ResidueNumber>
202

>  <InsertionCode>


>  <Model>
1

>  <AltIds>


>  <MissingHeavyAtoms>
0

>  <ObservedFormula>
C9 O

>  <Name>
(1R)-1-phenylprop-2-yn-1-ol

>  <SystematicName>
(1R)-1-phenylprop-2-yn-1-ol

>  <Synonyms>


>  <Type>
NON-POLYMER

>  <Formula>
C9 H8 O

>  <MolecularWeight>
132.159

>  <ModifiedDate>
2013-03-22

>  <Parent>


>  <OneLetterCode>


>  <SubcomponentList>


>  <AmbiguousFlag>
N

>  <InChI>
InChI=1S/C9H8O/c1-2-9(10)8-6-4-3-5-7-8/h1,3-7,9-10H/t9-/m1/s1

>  <InChIKey>
UIGLAZDLBZDVBL-SECBINFHSA-N

>  <SMILES>
C#C[C@H](c1ccccc1)O

$$$$
4I7Q_1DQ_A_202
  RCSB PDB12061712583D
Coordinates from PDB:4I7Q:A:202 Model:1 without hydrogens
  9  9  0  0  0  0            999 V2000
    1.7450    8.0170    2.1040   F 0  0  0  0  0  0  0  0  0  0  0  0
    2.5610    7.8270    1.0630   C 0  0  0  0  0  0  0  0  0  0  0  0
    1.8410    7.8350   -0.0590   F 0  0  0  0  0  0  0  0  0  0  0  0
    3.1090    6.6260    1.1710   F 0  0  0  0  0  0  0  0  0  0  0  0
    3.6410    8.9070    0.9430   C 0  0  0  0  0  0  0  0  0  0  0  0
    3.8600    9.9400    1.7640   C 0  0  0  0  0  0  0  0  0  0  0  0
    4.8840   10.6210    1.2720   N 0  0  0  0  0  0  0  0  0  0  0  0
    5.2990   10.0030    0.1620   C 0  0  0  0  0  0  0  0  0  0  0  0
    4.5190    8.9340   -0.0380   N 0  0  0  0  0  0  0  0  0  0  0  0
  3  2  1  0  0  0  0
  9  8  1  0  0  0  0
  9  5  1  0  0  0  0
  8  7  2  0  0  0  0
  5  2  1  0  0  0  0
  5  6  2  0  0  0  0
  2  4  1  0  0  0  0
  2  1  1  0  0  0  0
  7  6  1  0  0  0  0
M  END
>  <InstanceId>
4I7Q_1DQ_A_202

>  <ChemCompId>
1DQ

>  <PdbId>
4I7Q

>  <ChainId>
A

>  <ResidueNumber>
202

>  <InsertionCode>


>  <Model>
1

>  <AltIds>


>  <MissingHeavyAtoms>
0

>  <ObservedFormula>
C4 N2 F3

>  <Name>
5-(trifluoromethyl)-1H-imidazole

>  <SystematicName>
5-(trifluoromethyl)-1H-imidazole

>  <Synonyms>


>  <Type>
NON-POLYMER

>  <Formula>
C4 H3 F3 N2

>  <MolecularWeight>
136.075

>  <ModifiedDate>
2013-03-22

>  <Parent>


>  <OneLetterCode>


>  <SubcomponentList>


>  <AmbiguousFlag>
N

>  <InChI>
InChI=1S/C4H3F3N2/c5-4(6,7)3-1-8-2-9-3/h1-2H,(H,8,9)

>  <InChIKey>
DFLGRTIPTPCKPJ-UHFFFAOYSA-N

>  <SMILES>
c1c([nH]cn1)C(F)(F)F

$$$$
4I7R_1DU_A_203
  RCSB PDB12061712583D
Coordinates from PDB:4I7R:A:203 Model:1 without hydrogens
  8  8  0  0  0  0            999 V2000
    2.7990    7.8020    0.5310   C 0  0  0  0  0  0  0  0  0  0  0  0
    1.6710    7.8750    1.1950   C 0  0  0  0  0  0  0  0  0  0  0  0
    1.8150    8.8700    2.0490   C 0  0  0  0  0  0  0  0  0  0  0  0
    2.9980    9.3710    1.8680   N 0  0  0  0  0  0  0  0  0  0  0  0
    3.5550    8.7560    0.9710   N 0  0  0  0  0  0  0  0  0  0  0  0
    4.8990    8.9670    0.5100   C 0  0  0  0  0  0  0  0  0  0  0  0
    5.2670   10.4300    0.4560   C 0  0  0  0  0  0  0  0  0  0  0  0
    5.3220   10.8680    1.7520   O 0  0  0  0  0  0  0  0  0  0  0  0
  7  6  1  0  0  0  0
  7  8  1  0  0  0  0
  6  5  1  0  0  0  0
  1  5  1  0  0  0  0
  1  2  2  0  0  0  0
  5  4  1  0  0  0  0
  2  3  1  0  0  0  0
  4  3  2  0  0  0  0
M  END
>  <InstanceId>
4I7R_1DU_A_203

>  <ChemCompId>
1DU

>  <PdbId>
4I7R

>  <ChainId>
A

>  <ResidueNumber>
203

>  <InsertionCode>


>  <Model>
1

>  <AltIds>


>  <MissingHeavyAtoms>
0

>  <ObservedFormula>
C5 N2 O

>  <Name>
2-(1H-pyrazol-1-yl)ethanol

>  <SystematicName>
2-pyrazol-1-ylethanol

>  <Synonyms>


>  <Type>
NON-POLYMER

>  <Formula>
C5 H8 N2 O

>  <MolecularWeight>
112.13

>  <ModifiedDate>
2013-03-22

>  <Parent>


>  <OneLetterCode>


>  <SubcomponentList>


>  <AmbiguousFlag>
N

>  <InChI>
InChI=1S/C5H8N2O/c8-5-4-7-3-1-2-6-7/h1-3,8H,4-5H2

>  <InChIKey>
DXFBKDSQMUFYLD-UHFFFAOYSA-N

>  <SMILES>
c1cnn(c1)CCO

$$$$
4I7S_1DV_A_202
  RCSB PDB12061712583D
Coordinates from PDB:4I7S:A:202 Model:1 without hydrogens
 10 10  0  0  0  0            999 V2000
    3.4270    6.7120    1.0890   F 0  0  0  0  0  0  0  0  0  0  0  0
    2.8090    7.8770    0.9050   C 0  0  0  0  0  0  0  0  0  0  0  0
    2.0440    8.1310    1.9380   F 0  0  0  0  0  0  0  0  0  0  0  0
    2.0480    7.7880   -0.1750   F 0  0  0  0  0  0  0  0  0  0  0  0
    3.7980    9.0370    0.7030   C 0  0  0  0  0  0  0  0  0  0  0  0
    4.2090    9.4840   -0.4870   C 0  0  0  0  0  0  0  0  0  0  0  0
    5.0120   10.5020   -0.1770   C 0  0  0  0  0  0  0  0  0  0  0  0
    5.7800   11.3840   -1.1750   C 0  0  0  0  0  0  0  0  0  0  0  0
    5.0530   10.6410    1.1450   N 0  0  0  0  0  0  0  0  0  0  0  0
    4.3200    9.7860    1.6770   N 0  0  0  0  0  0  0  0  0  0  0  0
  8  7  1  0  0  0  0
  6  7  2  0  0  0  0
  6  5  1  0  0  0  0
  7  9  1  0  0  0  0
  4  2  1  0  0  0  0
  5  2  1  0  0  0  0
  5 10  2  0  0  0  0
  2  1  1  0  0  0  0
  2  3  1  0  0  0  0
  9 10  1  0  0  0  0
M  END
>  <InstanceId>
4I7S_1DV_A_202

>  <ChemCompId>
1DV

>  <PdbId>
4I7S

>  <ChainId>
A

>  <ResidueNumber>
202

>  <InsertionCode>


>  <Model>
1

>  <AltIds>


>  <MissingHeavyAtoms>
0

>  <ObservedFormula>
C5 N2 F3

>  <Name>
5-methyl-3-(trifluoromethyl)-1H-pyrazole

>  <SystematicName>
5-methyl-3-(trifluoromethyl)-1H-pyrazole

>  <Synonyms>


>  <Type>
NON-POLYMER

>  <Formula>
C5 H5 F3 N2

>  <MolecularWeight>
150.102

>  <ModifiedDate>
2013-03-22

>  <Parent>


>  <OneLetterCode>


>  <SubcomponentList>


>  <AmbiguousFlag>
N

>  <InChI>
InChI=1S/C5H5F3N2/c1-3-2-4(10-9-3)5(6,7)8/h2H,1H3,(H,9,10)

>  <InChIKey>
DLCHCAYDSKIFIN-UHFFFAOYSA-N

>  <SMILES>
Cc1cc(n[nH]1)C(F)(F)F

$$$$
4I7T_1DW_A_202
  RCSB PDB12061712583D
Coordinates from PDB:4I7T:A:202 Model:1 without hydrogens
 10 10  0  0  0  0            999 V2000
    1.3980    9.1410    2.5710   O 0  0  0  0  0  0  0  0  0  0  0  0
    2.2050   10.0670    2.5150   C 0  0  0  0  0  0  0  0  0  0  0  0
    3.2440   10.0560    1.5920   C 0  0  0  0  0  0  0  0  0  0  0  0
    3.3610    9.0040    0.6900   C 0  0  0  0  0  0  0  0  0  0  0  0
    2.1180    7.6010    0.7210  Br 0  0  0  0  0  0  0  0  0  0  0  0
    4.3990    8.9930   -0.2340   C 0  0  0  0  0  0  0  0  0  0  0  0
    5.3210   10.0330   -0.2560   C 0  0  0  0  0  0  0  0  0  0  0  0
    5.2040   11.0850    0.6450   C 0  0  0  0  0  0  0  0  0  0  0  0
    6.1050   12.1030    0.6230   O 0  0  0  0  0  0  0  0  0  0  0  0
    4.1650   11.0960    1.5690   C 0  0  0  0  0  0  0  0  0  0  0  0
  2  1  2  0  0  0  0
  2  3  1  0  0  0  0
  3 10  2  0  0  0  0
  3  4  1  0  0  0  0
 10  8  1  0  0  0  0
  5  4  1  0  0  0  0
  4  6  2  0  0  0  0
  8  9  1  0  0  0  0
  8  7  2  0  0  0  0
  6  7  1  0  0  0  0
M  END
>  <InstanceId>
4I7T_1DW_A_202

>  <ChemCompId>
1DW

>  <PdbId>
4I7T

>  <ChainId>
A

>  <ResidueNumber>
202

>  <InsertionCode>


>  <Model>
1

>  <AltIds>


>  <MissingHeavyAtoms>
0

>  <ObservedFormula>
C7 O2 Br

>  <Name>
2-bromo-5-hydroxybenzaldehyde

>  <SystematicName>
2-bromanyl-5-oxidanyl-benzaldehyde

>  <Synonyms>


>  <Type>
NON-POLYMER

>  <Formula>
C7 H5 Br O2

>  <MolecularWeight>
201.017

>  <ModifiedDate>
2013-03-22

>  <Parent>


>  <OneLetterCode>


>  <SubcomponentList>


>  <AmbiguousFlag>
N

>  <InChI>
InChI=1S/C7H5BrO2/c8-7-2-1-6(10)3-5(7)4-9/h1-4,10H

>  <InChIKey>
SCRQAWQJSSKCFN-UHFFFAOYSA-N

>  <SMILES>
c1cc(c(cc1O)C=O)Br

$$$$
2OTZ_1MR_X_203
  RCSB PDB12061706333D
Coordinates from PDB:2OTZ:X:203 Model:1 without hydrogens
  8  8  0  0  0  0            999 V2000
   37.1370  -23.9260  -14.5200   C 0  0  0  0  0  0  0  0  0  0  0  0
   37.3600  -23.7350  -13.0720   N 0  0  0  0  0  0  0  0  0  0  0  0
   37.4740  -24.7710  -12.2430   C 0  0  0  0  0  0  0  0  0  0  0  0
   37.0410  -24.6360  -10.9210   C 0  0  0  0  0  0  0  0  0  0  0  0
   37.1540  -25.7050  -10.0340   C 0  0  0  0  0  0  0  0  0  0  0  0
   37.7040  -26.9060  -10.4710   C 0  0  0  0  0  0  0  0  0  0  0  0
   38.1440  -27.0470  -11.7890   C 0  0  0  0  0  0  0  0  0  0  0  0
   38.0320  -25.9780  -12.6760   C 0  0  0  0  0  0  0  0  0  0  0  0
  1  2  1  0  0  0  0
  2  3  1  0  0  0  0
  3  4  2  0  0  0  0
  3  8  1  0  0  0  0
  4  5  1  0  0  0  0
  5  6  2  0  0  0  0
  6  7  1  0  0  0  0
  7  8  2  0  0  0  0
M  END
>  <InstanceId>
2OTZ_1MR_X_203

>  <ChemCompId>
1MR

>  <PdbId>
2OTZ

>  <ChainId>
X

>  <ResidueNumber>
203

>  <InsertionCode>


>  <Model>
1

>  <AltIds>


>  <MissingHeavyAtoms>
0

>  <ObservedFormula>
C7 N

>  <Name>
N-METHYLANILINE

>  <SystematicName>
N-methylaniline

>  <Synonyms>


>  <Type>
NON-POLYMER

>  <Formula>
C7 H9 N

>  <MolecularWeight>
107.153

>  <ModifiedDate>
2011-06-04

>  <Parent>


>  <OneLetterCode>


>  <SubcomponentList>


>  <AmbiguousFlag>


>  <InChI>
InChI=1S/C7H9N/c1-8-7-5-3-2-4-6-7/h2-6,8H,1H3

>  <InChIKey>
AFBPFSWMIHJQDM-UHFFFAOYSA-N

>  <SMILES>
CNc1ccccc1

$$$$
2RAY_258_X_2001
  RCSB PDB12061706543D
Coordinates from PDB:2RAY:X:2001 Model:1 without hydrogens
 10 10  0  0  0  0            999 V2000
   27.1020    7.2590    4.5400   C 0  0  0  0  0  0  0  0  0  0  0  0
   26.4850    6.8460    5.7290   C 0  0  0  0  0  0  0  0  0  0  0  0
   25.7910    5.6370    5.7410   C 0  0  0  0  0  0  0  0  0  0  0  0
   25.7270    4.8610    4.5820   C 0  0  0  0  0  0  0  0  0  0  0  0
   26.3320    5.2740    3.3920   C 0  0  0  0  0  0  0  0  0  0  0  0
   27.0350    6.4890    3.3720   C 0  0  0  0  0  0  0  0  0  0  0  0
   27.6340    6.8790    2.2000   O 0  0  0  0  0  0  0  0  0  0  0  0
   28.1120    8.2760    2.2090   C 0  0  0  0  0  0  0  0  0  0  0  0
   28.4300    8.7130    0.7620   C 0  0  0  0  0  0  0  0  0  0  0  0
   26.9520    8.6990   -0.2410  Cl 0  0  0  0  0  0  0  0  0  0  0  0
  1  2  2  0  0  0  0
  1  6  1  0  0  0  0
  2  3  1  0  0  0  0
  3  4  2  0  0  0  0
  4  5  1  0  0  0  0
  5  6  2  0  0  0  0
  6  7  1  0  0  0  0
  7  8  1  0  0  0  0
  8  9  1  0  0  0  0
  9 10  1  0  0  0  0
M  END
>  <InstanceId>
2RAY_258_X_2001

>  <ChemCompId>
258

>  <PdbId>
2RAY

>  <ChainId>
X

>  <ResidueNumber>
2001

>  <InsertionCode>


>  <Model>
1

>  <AltIds>


>  <MissingHeavyAtoms>
0

>  <ObservedFormula>
C8 O Cl

>  <Name>
(2-chloroethoxy)benzene

>  <SystematicName>
2-chloroethoxybenzene

>  <Synonyms>


>  <Type>
NON-POLYMER

>  <Formula>
C8 H9 Cl O

>  <MolecularWeight>
156.609

>  <ModifiedDate>
2011-06-04

>  <Parent>


>  <OneLetterCode>


>  <SubcomponentList>


>  <AmbiguousFlag>
N

>  <InChI>
InChI=1S/C8H9ClO/c9-6-7-10-8-4-2-1-3-5-8/h1-5H,6-7H2

>  <InChIKey>
VQUYNUJARXBNPK-UHFFFAOYSA-N

>  <SMILES>
c1ccc(cc1)OCCCl

$$$$
2RAZ_259_X_1001
  RCSB PDB12061706543D
Coordinates from PDB:2RAZ:X:1001 Model:1 without hydrogens
 11 11  0  0  0  0            999 V2000
  -24.5590   23.3350   -0.3570   C 0  0  0  0  0  0  0  0  0  0  0  0
  -25.0070   23.1930   -2.0750   S 0  0  0  0  0  0  0  0  0  0  0  0
  -23.9820   24.3270   -2.9100   C 0  0  0  0  0  0  0  0  0  0  0  0
  -24.3620   24.7750   -4.1660   C 0  0  0  0  0  0  0  0  0  0  0  0
  -23.5710   25.7000   -4.8300   C 0  0  0  0  0  0  0  0  0  0  0  0
  -22.4050   26.1730   -4.2440   C 0  0  0  0  0  0  0  0  0  0  0  0
  -21.6860   27.0740   -4.9050   N 0  3  0  0  0  0  0  0  0  0  0  0
  -20.6200   27.7230   -4.2750   O 0  5  0  0  0  0  0  0  0  0  0  0
  -22.0300   27.4140   -6.2190   O 0  0  0  0  0  0  0  0  0  0  0  0
  -22.0190   25.7320   -2.9790   C 0  0  0  0  0  0  0  0  0  0  0  0
  -22.8070   24.7990   -2.3110   C 0  0  0  0  0  0  0  0  0  0  0  0
  1  2  1  0  0  0  0
  2  3  1  0  0  0  0
  3  4  2  0  0  0  0
  3 11  1  0  0  0  0
  4  5  1  0  0  0  0
  5  6  2  0  0  0  0
  6  7  1  0  0  0  0
  6 10  1  0  0  0  0
  7  8  1  0  0  0  0
  7  9  2  0  0  0  0
 10 11  2  0  0  0  0
M  CHG  2   7   1   8  -1
M  END
>  <InstanceId>
2RAZ_259_X_1001

>  <ChemCompId>
259

>  <PdbId>
2RAZ

>  <ChainId>
X

>  <ResidueNumber>
1001

>  <InsertionCode>


>  <Model>
1

>  <AltIds>


>  <MissingHeavyAtoms>
0

>  <ObservedFormula>
C7 N O2 S

>  <Name>
1-(methylsulfanyl)-4-nitrobenzene

>  <SystematicName>
1-methylsulfanyl-4-nitro-benzene

>  <Synonyms>


>  <Type>
NON-POLYMER

>  <Formula>
C7 H7 N O2 S

>  <MolecularWeight>
169.201

>  <ModifiedDate>
2011-06-04

>  <Parent>


>  <OneLetterCode>


>  <SubcomponentList>


>  <AmbiguousFlag>
N

>  <InChI>
InChI=1S/C7H7NO2S/c1-11-7-4-2-6(3-5-7)8(9)10/h2-5H,1H3

>  <InChIKey>
NEZGPRYOJVPJKL-UHFFFAOYSA-N

>  <SMILES>
CSc1ccc(cc1)[N+](=O)[O-]

$$$$
2RB0_260_X_1001
  RCSB PDB12061706543D
Coordinates from PDB:2RB0:X:1001 Model:1 without hydrogens
 10 10  0  0  0  0            999 V2000
  -24.2390   24.1180   -0.9270  Br 0  0  0  0  0  0  0  0  0  0  0  0
  -22.5700   24.0990   -1.9430   C 0  0  0  0  0  0  0  0  0  0  0  0
  -22.5740   25.0960   -3.1120   C 0  0  0  0  0  0  0  0  0  0  0  0
  -23.2780   24.8420   -4.2940   C 0  0  0  0  0  0  0  0  0  0  0  0
  -23.9740   23.7010   -4.4150   F 0  0  0  0  0  0  0  0  0  0  0  0
  -23.2770   25.7470   -5.3590   C 0  0  0  0  0  0  0  0  0  0  0  0
  -22.5670   26.9370   -5.2620   C 0  0  0  0  0  0  0  0  0  0  0  0
  -21.8570   27.2120   -4.0980   C 0  0  0  0  0  0  0  0  0  0  0  0
  -21.8610   26.2970   -3.0440   C 0  0  0  0  0  0  0  0  0  0  0  0
  -21.1680   26.5840   -1.9320   F 0  0  0  0  0  0  0  0  0  0  0  0
  1  2  1  0  0  0  0
  2  3  1  0  0  0  0
  3  4  2  0  0  0  0
  3  9  1  0  0  0  0
  4  5  1  0  0  0  0
  4  6  1  0  0  0  0
  6  7  2  0  0  0  0
  7  8  1  0  0  0  0
  8  9  2  0  0  0  0
  9 10  1  0  0  0  0
M  END
>  <InstanceId>
2RB0_260_X_1001

>  <ChemCompId>
260

>  <PdbId>
2RB0

>  <ChainId>
X

>  <ResidueNumber>
1001

>  <InsertionCode>


>  <Model>
1

>  <AltIds>


>  <MissingHeavyAtoms>
0

>  <ObservedFormula>
C7 Br F2

>  <Name>
2-(bromomethyl)-1,3-difluorobenzene

>  <SystematicName>
2-(bromomethyl)-1,3-difluoro-benzene

>  <Synonyms>


>  <Type>
NON-POLYMER

>  <Formula>
C7 H5 Br F2

>  <MolecularWeight>
207.015

>  <ModifiedDate>
2011-06-04

>  <Parent>


>  <OneLetterCode>


>  <SubcomponentList>


>  <AmbiguousFlag>
N

>  <InChI>
InChI=1S/C7H5BrF2/c8-4-5-6(9)2-1-3-7(5)10/h1-3H,4H2

>  <InChIKey>
LSXJPJGBWSZHTM-UHFFFAOYSA-N

>  <SMILES>
c1cc(c(c(c1)F)CBr)F

$$$$
2RB1_261_X_1001
  RCSB PDB12061706543D
Coordinates from PDB:2RB1:X:1001 Model:1 without hydrogens
 10 10  0  0  0  0            999 V2000
  -24.0490   23.8800   -0.6170   C 0  0  0  0  0  0  0  0  0  0  0  0
  -23.8820   24.1340   -2.1280   C 0  0  0  0  0  0  0  0  0  0  0  0
  -22.6230   24.8730   -2.3030   O 0  0  0  0  0  0  0  0  0  0  0  0
  -22.5450   25.6450   -3.4210   C 0  0  0  0  0  0  0  0  0  0  0  0
  -23.2240   25.3580   -4.5940   C 0  0  0  0  0  0  0  0  0  0  0  0
  -23.0910   26.1900   -5.7140   C 0  0  0  0  0  0  0  0  0  0  0  0
  -22.2640   27.3040   -5.6540   C 0  0  0  0  0  0  0  0  0  0  0  0
  -21.5850   27.6010   -4.4780   C 0  0  0  0  0  0  0  0  0  0  0  0
  -21.7070   26.7630   -3.3660   C 0  0  0  0  0  0  0  0  0  0  0  0
  -21.0240   27.0270   -2.2220   O 0  0  0  0  0  0  0  0  0  0  0  0
  1  2  1  0  0  0  0
  2  3  1  0  0  0  0
  3  4  1  0  0  0  0
  4  5  2  0  0  0  0
  4  9  1  0  0  0  0
  5  6  1  0  0  0  0
  6  7  2  0  0  0  0
  7  8  1  0  0  0  0
  8  9  2  0  0  0  0
  9 10  1  0  0  0  0
M  END
>  <InstanceId>
2RB1_261_X_1001

>  <ChemCompId>
261

>  <PdbId>
2RB1

>  <ChainId>
X

>  <ResidueNumber>
1001

>  <InsertionCode>


>  <Model>
1

>  <AltIds>


>  <MissingHeavyAtoms>
0

>  <ObservedFormula>
C8 O2

>  <Name>
2-ethoxyphenol

>  <SystematicName>
2-ethoxyphenol

>  <Synonyms>


>  <Type>
NON-POLYMER

>  <Formula>
C8 H10 O2

>  <MolecularWeight>
138.164

>  <ModifiedDate>
2011-06-04

>  <Parent>


>  <OneLetterCode>


>  <SubcomponentList>


>  <AmbiguousFlag>
N

>  <InChI>
InChI=1S/C8H10O2/c1-2-10-8-6-4-3-5-7(8)9/h3-6,9H,2H2,1H3

>  <InChIKey>
MOEFFSWKSMRFRQ-UHFFFAOYSA-N

>  <SMILES>
CCOc1ccccc1O

$$$$
3HU8_261_A_167
  RCSB PDB12061708573D
Coordinates from PDB:3HU8:A:167 Model:1 without hydrogens
 10 10  0  0  0  0            999 V2000
   23.8480  -23.9920   -0.3080   C 0  0  0  0  0  0  0  0  0  0  0  0
   23.5360  -23.9730   -1.8010   C 0  0  0  0  0  0  0  0  0  0  0  0
   22.2750  -24.6570   -2.0140   O 0  0  0  0  0  0  0  0  0  0  0  0
   22.2570  -25.4490   -3.1170   C 0  0  0  0  0  0  0  0  0  0  0  0
   22.9410  -25.0860   -4.2780   C 0  0  0  0  0  0  0  0  0  0  0  0
   22.9060  -25.9320   -5.3910   C 0  0  0  0  0  0  0  0  0  0  0  0
   22.1770  -27.1190   -5.3480   C 0  0  0  0  0  0  0  0  0  0  0  0
   21.4800  -27.4770   -4.1900   C 0  0  0  0  0  0  0  0  0  0  0  0
   21.5210  -26.6380   -3.0740   C 0  0  0  0  0  0  0  0  0  0  0  0
   20.8420  -26.9820   -1.9410   O 0  0  0  0  0  0  0  0  0  0  0  0
  1  2  1  0  0  0  0
  2  3  1  0  0  0  0
  3  4  1  0  0  0  0
  4  5  2  0  0  0  0
  4  9  1  0  0  0  0
  5  6  1  0  0  0  0
  6  7  2  0  0  0  0
  7  8  1  0  0  0  0
  8  9  2  0  0  0  0
  9 10  1  0  0  0  0
M  END
>  <InstanceId>
3HU8_261_A_167

>  <ChemCompId>
261

>  <PdbId>
3HU8

>  <ChainId>
A

>  <ResidueNumber>
167

>  <InsertionCode>


>  <Model>
1

>  <AltIds>


>  <MissingHeavyAtoms>
0

>  <ObservedFormula>
C8 O2

>  <Name>
2-ethoxyphenol

>  <SystematicName>
2-ethoxyphenol

>  <Synonyms>


>  <Type>
NON-POLYMER

>  <Formula>
C8 H10 O2

>  <MolecularWeight>
138.164

>  <ModifiedDate>
2011-06-04

>  <Parent>


>  <OneLetterCode>


>  <SubcomponentList>


>  <AmbiguousFlag>
N

>  <InChI>
InChI=1S/C8H10O2/c1-2-10-8-6-4-3-5-7(8)9/h3-6,9H,2H2,1H3

>  <InChIKey>
MOEFFSWKSMRFRQ-UHFFFAOYSA-N

>  <SMILES>
CCOc1ccccc1O

$$$$
2RB2_263_X_1001
  RCSB PDB12061706543D
Coordinates from PDB:2RB2:X:1001 Model:1 without hydrogens
 11 11  0  0  0  0            999 V2000
   26.5690    7.3540    4.5550   C 0  0  0  0  0  0  0  0  0  0  0  0
   27.3560    7.6720    3.4520   C 0  0  0  0  0  0  0  0  0  0  0  0
   27.5430    6.7350    2.4350   C 0  0  0  0  0  0  0  0  0  0  0  0
   26.9420    5.4790    2.5080   C 0  0  0  0  0  0  0  0  0  0  0  0
   26.1500    5.1640    3.6100   C 0  0  0  0  0  0  0  0  0  0  0  0
   25.9750    6.0990    4.6270   C 0  0  0  0  0  0  0  0  0  0  0  0
   25.1200    5.7440    5.8330   C 0  0  0  0  0  0  0  0  0  0  0  0
   28.0030    9.0530    3.3730   C 0  0  0  0  0  0  0  0  0  0  0  0
   27.2860    9.8760    2.3800   N 0  0  0  0  0  0  0  0  0  0  0  0
   27.1860    9.4590    1.1460   N 0  3  0  0  0  0  0  0  0  0  0  0
   27.0960    9.0160   -0.0620   N 0  5  0  0  0  0  0  0  0  0  0  0
  1  2  2  0  0  0  0
  1  6  1  0  0  0  0
  2  3  1  0  0  0  0
  2  8  1  0  0  0  0
  3  4  2  0  0  0  0
  4  5  1  0  0  0  0
  5  6  2  0  0  0  0
  6  7  1  0  0  0  0
  8  9  1  0  0  0  0
  9 10  2  0  0  0  0
 10 11  2  0  0  0  0
M  CHG  2  10   1  11  -1
M  END
>  <InstanceId>
2RB2_263_X_1001

>  <ChemCompId>
263

>  <PdbId>
2RB2

>  <ChainId>
X

>  <ResidueNumber>
1001

>  <InsertionCode>


>  <Model>
1

>  <AltIds>


>  <MissingHeavyAtoms>
0

>  <ObservedFormula>
C8 N3

>  <Name>
1-(azidomethyl)-3-methylbenzene

>  <SystematicName>
1-(azidomethyl)-3-methyl-benzene

>  <Synonyms>


>  <Type>
NON-POLYMER

>  <Formula>
C8 H9 N3

>  <MolecularWeight>
147.177

>  <ModifiedDate>
2011-06-04

>  <Parent>


>  <OneLetterCode>


>  <SubcomponentList>


>  <AmbiguousFlag>
N

>  <InChI>
InChI=1S/C8H9N3/c1-7-3-2-4-8(5-7)6-10-11-9/h2-5H,6H2,1H3

>  <InChIKey>
FCVHHYNXTVRWJE-UHFFFAOYSA-N

>  <SMILES>
Cc1cccc(c1)CN=[N+]=[N-]

$$$$
2RBQ_263_A_1001
  RCSB PDB12061706543D
Coordinates from PDB:2RBQ:A:1001 Model:1 without hydrogens
 11 11  0  0  0  0            999 V2000
   26.8260    7.3530    4.6520   C 0  0  0  0  0  0  0  0  0  0  0  0
   27.5050    7.5160    3.4480   C 0  0  0  0  0  0  0  0  0  0  0  0
   27.4680    6.5230    2.4610   C 0  0  0  0  0  0  0  0  0  0  0  0
   26.7430    5.3490    2.6650   C 0  0  0  0  0  0  0  0  0  0  0  0
   26.0580    5.1840    3.8700   C 0  0  0  0  0  0  0  0  0  0  0  0
   26.1100    6.1840    4.8490   C 0  0  0  0  0  0  0  0  0  0  0  0
   25.3640    5.9870    6.1560   C 0  0  0  0  0  0  0  0  0  0  0  0
   28.2860    8.7950    3.2410   C 0  0  0  0  0  0  0  0  0  0  0  0
   27.5170    9.7070    2.3750   N 0  0  0  0  0  0  0  0  0  0  0  0
   27.2190    9.3420    1.1510   N 0  3  0  0  0  0  0  0  0  0  0  0
   26.9380    8.9700   -0.0420   N 0  5  0  0  0  0  0  0  0  0  0  0
  1  2  2  0  0  0  0
  1  6  1  0  0  0  0
  2  3  1  0  0  0  0
  2  8  1  0  0  0  0
  3  4  2  0  0  0  0
  4  5  1  0  0  0  0
  5  6  2  0  0  0  0
  6  7  1  0  0  0  0
  8  9  1  0  0  0  0
  9 10  2  0  0  0  0
 10 11  2  0  0  0  0
M  CHG  2  10   1  11  -1
M  END
>  <InstanceId>
2RBQ_263_A_1001

>  <ChemCompId>
263

>  <PdbId>
2RBQ

>  <ChainId>
A

>  <ResidueNumber>
1001

>  <InsertionCode>


>  <Model>
1

>  <AltIds>


>  <MissingHeavyAtoms>
0

>  <ObservedFormula>
C8 N3

>  <Name>
1-(azidomethyl)-3-methylbenzene

>  <SystematicName>
1-(azidomethyl)-3-methyl-benzene

>  <Synonyms>


>  <Type>
NON-POLYMER

>  <Formula>
C8 H9 N3

>  <MolecularWeight>
147.177

>  <ModifiedDate>
2011-06-04

>  <Parent>


>  <OneLetterCode>


>  <SubcomponentList>


>  <AmbiguousFlag>
N

>  <InChI>
InChI=1S/C8H9N3/c1-7-3-2-4-8(5-7)6-10-11-9/h2-5H,6H2,1H3

>  <InChIKey>
FCVHHYNXTVRWJE-UHFFFAOYSA-N

>  <SMILES>
Cc1cccc(c1)CN=[N+]=[N-]

$$$$
2RBN_264_A_1001
  RCSB PDB12061706543D
Coordinates from PDB:2RBN:A:1001 Model:1 without hydrogens
 10 10  0  0  0  0            999 V2000
   27.2270    7.4950    4.7070   C 0  0  0  0  0  0  0  0  0  0  0  0
   26.2960    6.8080    5.4920   C 0  0  0  0  0  0  0  0  0  0  0  0
   25.6010    5.7300    4.9440   C 0  0  0  0  0  0  0  0  0  0  0  0
   25.8280    5.3570    3.6220   C 0  0  0  0  0  0  0  0  0  0  0  0
   26.7570    6.0470    2.8450   C 0  0  0  0  0  0  0  0  0  0  0  0
   27.4590    7.1290    3.3770   C 0  0  0  0  0  0  0  0  0  0  0  0
   28.3670    7.8060    2.6550   N 0  0  0  0  0  0  0  0  0  0  0  0
   28.4840    7.7070    1.1870   C 0  0  0  0  0  0  0  0  0  0  0  0
   27.3620    8.3590    0.4950   C 0  0  0  0  0  0  0  0  0  0  0  0
   26.4960    8.8450   -0.0630   N 0  0  0  0  0  0  0  0  0  0  0  0
  1  2  2  0  0  0  0
  1  6  1  0  0  0  0
  2  3  1  0  0  0  0
  3  4  2  0  0  0  0
  4  5  1  0  0  0  0
  5  6  2  0  0  0  0
  6  7  1  0  0  0  0
  7  8  1  0  0  0  0
  8  9  1  0  0  0  0
  9 10  3  0  0  0  0
M  END
>  <InstanceId>
2RBN_264_A_1001

>  <ChemCompId>
264

>  <PdbId>
2RBN

>  <ChainId>
A

>  <ResidueNumber>
1001

>  <InsertionCode>


>  <Model>
1

>  <AltIds>


>  <MissingHeavyAtoms>
0

>  <ObservedFormula>
C8 N2

>  <Name>
(phenylamino)acetonitrile

>  <SystematicName>
2-phenylazanylethanenitrile

>  <Synonyms>


>  <Type>
NON-POLYMER

>  <Formula>
C8 H8 N2

>  <MolecularWeight>
132.163

>  <ModifiedDate>
2011-06-04

>  <Parent>


>  <OneLetterCode>


>  <SubcomponentList>


>  <AmbiguousFlag>
N

>  <InChI>
InChI=1S/C8H8N2/c9-6-7-10-8-4-2-1-3-5-8/h1-5,10H,7H2

>  <InChIKey>
KAXCEFLQAYFJKV-UHFFFAOYSA-N

>  <SMILES>
c1ccc(cc1)NCC#N

$$$$
2RBO_265_A_1001
  RCSB PDB12061706543D
Coordinates from PDB:2RBO:A:1001 Model:1 without hydrogens
  8  8  0  0  0  0            999 V2000
   27.4600    6.6020    2.8370   C 0  0  0  0  0  0  0  0  0  0  0  0
   28.0580    7.8050    2.7060   C 0  0  0  0  0  0  0  0  0  0  0  0
   27.8130    8.6990    3.6780   C 0  0  0  0  0  0  0  0  0  0  0  0
   26.7840    7.9300    4.7690   S 0  0  0  0  0  0  0  0  0  0  0  0
   26.7000    6.4970    3.9300   C 0  0  0  0  0  0  0  0  0  0  0  0
   26.0070    5.4340    4.3220   N 0  3  0  0  0  0  0  0  0  0  0  0
   25.9830    4.2630    3.5380   O 0  5  0  0  0  0  0  0  0  0  0  0
   25.3030    5.4740    5.5510   O 0  0  0  0  0  0  0  0  0  0  0  0
  1  2  1  0  0  0  0
  1  5  2  0  0  0  0
  2  3  2  0  0  0  0
  3  4  1  0  0  0  0
  4  5  1  0  0  0  0
  5  6  1  0  0  0  0
  6  7  1  0  0  0  0
  6  8  2  0  0  0  0
M  CHG  2   6   1   7  -1
M  END
>  <InstanceId>
2RBO_265_A_1001

>  <ChemCompId>
265

>  <PdbId>
2RBO

>  <ChainId>
A

>  <ResidueNumber>
1001

>  <InsertionCode>


>  <Model>
1

>  <AltIds>


>  <MissingHeavyAtoms>
0

>  <ObservedFormula>
C4 N O2 S

>  <Name>
2-nitrothiophene

>  <SystematicName>
2-nitrothiophene

>  <Synonyms>


>  <Type>
NON-POLYMER

>  <Formula>
C4 H3 N O2 S

>  <MolecularWeight>
129.137

>  <ModifiedDate>
2011-06-04

>  <Parent>


>  <OneLetterCode>


>  <SubcomponentList>


>  <AmbiguousFlag>
N

>  <InChI>
InChI=1S/C4H3NO2S/c6-5(7)4-2-1-3-8-4/h1-3H

>  <InChIKey>
JIZRGGUCOQKGQD-UHFFFAOYSA-N

>  <SMILES>
c1cc(sc1)[N+](=O)[O-]

$$$$
2RBP_266_A_1001
  RCSB PDB12061706543D
Coordinates from PDB:2RBP:A:1001 Model:1 without hydrogens
  7  6  0  0  0  0            999 V2000
   25.7230    5.9030    5.9170   C 0  0  0  0  0  0  0  0  0  0  0  0
   25.7290    5.5580    4.4310   C 0  0  0  0  0  0  0  0  0  0  0  0
   26.6130    6.5590    3.6880   C 0  0  0  0  0  0  0  0  0  0  0  0
   27.1020    5.9590    2.0340   S 0  0  0  0  0  0  0  0  0  0  0  0
   27.9250    7.4630    1.4110   C 0  0  0  0  0  0  0  0  0  0  0  0
   26.9380    8.4610    0.8170   C 0  0  0  0  0  0  0  0  0  0  0  0
   27.6610    9.5680    0.2920   O 0  0  0  0  0  0  0  0  0  0  0  0
  1  2  1  0  0  0  0
  2  3  1  0  0  0  0
  3  4  1  0  0  0  0
  4  5  1  0  0  0  0
  5  6  1  0  0  0  0
  6  7  1  0  0  0  0
M  END
>  <InstanceId>
2RBP_266_A_1001

>  <ChemCompId>
266

>  <PdbId>
2RBP

>  <ChainId>
A

>  <ResidueNumber>
1001

>  <InsertionCode>


>  <Model>
1

>  <AltIds>


>  <MissingHeavyAtoms>
0

>  <ObservedFormula>
C5 O S

>  <Name>
2-(propylsulfanyl)ethanol

>  <SystematicName>
2-propylsulfanylethanol

>  <Synonyms>


>  <Type>
NON-POLYMER

>  <Formula>
C5 H12 O S

>  <MolecularWeight>
120.213

>  <ModifiedDate>
2011-06-04

>  <Parent>


>  <OneLetterCode>


>  <SubcomponentList>


>  <AmbiguousFlag>
N

>  <InChI>
InChI=1S/C5H12OS/c1-2-4-7-5-3-6/h6H,2-5H2,1H3

>  <InChIKey>
KCWWXXYQPUDKBX-UHFFFAOYSA-N

>  <SMILES>
CCCSCCO

$$$$
2RBR_268_A_1001
  RCSB PDB12061706543D
Coordinates from PDB:2RBR:A:1001 Model:1 without hydrogens
 10 10  0  0  0  0            999 V2000
  -40.4040   19.4340   11.7650   C 0  0  0  0  0  0  0  0  0  0  0  0
  -41.0830   19.2540   10.5630   C 0  0  0  0  0  0  0  0  0  0  0  0
  -42.4650   19.3730   10.5350   C 0  0  0  0  0  0  0  0  0  0  0  0
  -43.1810   19.6540   11.6940   C 0  0  0  0  0  0  0  0  0  0  0  0
  -42.5040   19.8340   12.8930   C 0  0  0  0  0  0  0  0  0  0  0  0
  -41.1240   19.7210   12.9240   C 0  0  0  0  0  0  0  0  0  0  0  0
  -40.5480   19.8840   14.1410   O 0  0  0  0  0  0  0  0  0  0  0  0
  -39.1850   19.4390   14.2140   C 0  0  0  0  0  0  0  0  0  0  0  0
  -38.8540   19.2810   15.6870   C 0  0  0  0  0  0  0  0  0  0  0  0
  -37.4550   19.1130   15.8050   O 0  0  0  0  0  0  0  0  0  0  0  0
  1  2  2  0  0  0  0
  1  6  1  0  0  0  0
  2  3  1  0  0  0  0
  3  4  2  0  0  0  0
  4  5  1  0  0  0  0
  5  6  2  0  0  0  0
  6  7  1  0  0  0  0
  7  8  1  0  0  0  0
  8  9  1  0  0  0  0
  9 10  1  0  0  0  0
M  END
>  <InstanceId>
2RBR_268_A_1001

>  <ChemCompId>
268

>  <PdbId>
2RBR

>  <ChainId>
A

>  <ResidueNumber>
1001

>  <InsertionCode>


>  <Model>
1

>  <AltIds>


>  <MissingHeavyAtoms>
0

>  <ObservedFormula>
C8 O2

>  <Name>
2-phenoxyethanol

>  <SystematicName>
2-phenoxyethanol

>  <Synonyms>


>  <Type>
NON-POLYMER

>  <Formula>
C8 H10 O2

>  <MolecularWeight>
138.164

>  <ModifiedDate>
2011-06-04

>  <Parent>


>  <OneLetterCode>


>  <SubcomponentList>


>  <AmbiguousFlag>
N

>  <InChI>
InChI=1S/C8H10O2/c9-6-7-10-8-4-2-1-3-5-8/h1-5,9H,6-7H2

>  <InChIKey>
QCDWFXQBSFUVSP-UHFFFAOYSA-N

>  <SMILES>
c1ccc(cc1)OCCO

$$$$
2RBS_269_A_1001
  RCSB PDB12061706543D
Coordinates from PDB:2RBS:A:1001 Model:1 without hydrogens
 11 11  0  0  0  0            999 V2000
   40.3780  -19.6580   11.5770   C 0  0  0  0  0  0  0  0  0  0  0  0
   41.5270  -19.3080   10.8650   C 0  0  0  0  0  0  0  0  0  0  0  0
   42.7770  -19.4230   11.4730   C 0  0  0  0  0  0  0  0  0  0  0  0
   42.8900  -19.8940   12.7830   C 0  0  0  0  0  0  0  0  0  0  0  0
   41.7420  -20.2440   13.4920   C 0  0  0  0  0  0  0  0  0  0  0  0
   40.4900  -20.1290   12.8880   C 0  0  0  0  0  0  0  0  0  0  0  0
   39.2450  -20.5260   13.6980   C 0  0  0  0  0  0  0  0  0  0  0  0
   38.5730  -21.6020   13.0340   O 0  0  0  0  0  0  0  0  0  0  0  0
   38.2710  -19.3420   13.8690   C 0  0  0  0  0  0  0  0  0  0  0  0
   38.9120  -18.1390   14.5690   C 0  0  0  0  0  0  0  0  0  0  0  0
   39.5040  -18.5620   16.2030  Cl 0  0  0  0  0  0  0  0  0  0  0  0
  1  2  2  0  0  0  0
  1  6  1  0  0  0  0
  2  3  1  0  0  0  0
  3  4  2  0  0  0  0
  4  5  1  0  0  0  0
  5  6  2  0  0  0  0
  6  7  1  0  0  0  0
  7  8  1  0  0  0  0
  7  9  1  0  0  0  0
  9 10  1  0  0  0  0
 10 11  1  0  0  0  0
M  END
>  <InstanceId>
2RBS_269_A_1001

>  <ChemCompId>
269

>  <PdbId>
2RBS

>  <ChainId>
A

>  <ResidueNumber>
1001

>  <InsertionCode>


>  <Model>
1

>  <AltIds>


>  <MissingHeavyAtoms>
0

>  <ObservedFormula>
C9 O Cl

>  <Name>
(1R)-3-chloro-1-phenylpropan-1-ol

>  <SystematicName>
(1R)-3-chloro-1-phenyl-propan-1-ol

>  <Synonyms>


>  <Type>
NON-POLYMER

>  <Formula>
C9 H11 Cl O

>  <MolecularWeight>
170.636

>  <ModifiedDate>
2011-06-04

>  <Parent>


>  <OneLetterCode>


>  <SubcomponentList>


>  <AmbiguousFlag>
N

>  <InChI>
InChI=1S/C9H11ClO/c10-7-6-9(11)8-4-2-1-3-5-8/h1-5,9,11H,6-7H2/t9-/m1/s1

>  <InChIKey>
JZFUHAGLMZWKTF-SECBINFHSA-N

>  <SMILES>
c1ccc(cc1)[C@@H](CCCl)O

$$$$
1OVH_2CM_A_404
  RCSB PDB12061703363D
Coordinates from PDB:1OVH:A:404 Model:1 without hydrogens
  9  9  0  0  0  0            999 V2000
   27.3730    6.7680    3.5580   C 0  0  0  0  0  0  0  0  0  0  0  0
   27.1180    7.3380    4.7930   C 0  0  0  0  0  0  0  0  0  0  0  0
   26.7780    5.5440    3.2800   C 0  0  0  0  0  0  0  0  0  0  0  0
   28.1980    7.4140    2.6620   N 0  0  0  0  0  0  0  0  0  0  0  0
   26.2960    6.6990    5.7240   C 0  0  0  0  0  0  0  0  0  0  0  0
   27.7830    8.6470    5.0800   C 0  0  0  0  0  0  0  0  0  0  0  0
   25.9370    4.9000    4.1800   C 0  0  0  0  0  0  0  0  0  0  0  0
   27.0950    4.8070    1.8220  Cl 0  0  0  0  0  0  0  0  0  0  0  0
   25.6960    5.4800    5.4190   C 0  0  0  0  0  0  0  0  0  0  0  0
  1  2  1  0  0  0  0
  1  3  2  0  0  0  0
  1  4  1  0  0  0  0
  2  5  2  0  0  0  0
  2  6  1  0  0  0  0
  3  7  1  0  0  0  0
  3  8  1  0  0  0  0
  5  9  1  0  0  0  0
  7  9  2  0  0  0  0
M  END
>  <InstanceId>
1OVH_2CM_A_404

>  <ChemCompId>
2CM

>  <PdbId>
1OVH

>  <ChainId>
A

>  <ResidueNumber>
404

>  <InsertionCode>


>  <Model>
1

>  <AltIds>


>  <MissingHeavyAtoms>
0

>  <ObservedFormula>
C7 N Cl

>  <Name>
2-CHLORO-6-METHYL-ANILINE

>  <SystematicName>
2-chloro-6-methyl-aniline

>  <Synonyms>


>  <Type>
NON-POLYMER

>  <Formula>
C7 H8 Cl N

>  <MolecularWeight>
141.598

>  <ModifiedDate>
2011-06-04

>  <Parent>


>  <OneLetterCode>


>  <SubcomponentList>


>  <AmbiguousFlag>
N

>  <InChI>
InChI=1S/C7H8ClN/c1-5-3-2-4-6(8)7(5)9/h2-4H,9H2,1H3

>  <InChIKey>
WFNLHDJJZSJARK-UHFFFAOYSA-N

>  <SMILES>
Cc1cccc(c1N)Cl

$$$$
1OV5_2LP_A_403
  RCSB PDB12061703353D
Coordinates from PDB:1OV5:A:403 Model:1 without hydrogens
 10 10  0  0  0  0            999 V2000
   27.2070    6.6180    3.3940   C 0  0  0  0  0  0  0  0  0  0  0  0
   27.5740    7.2830    4.5550   C 0  0  0  0  0  0  0  0  0  0  0  0
   26.3360    5.5300    3.4260   C 0  0  0  0  0  0  0  0  0  0  0  0
   27.8250    7.0860    2.1010   C 0  0  0  0  0  0  0  0  0  0  0  0
   27.0560    6.8530    5.7810   C 0  0  0  0  0  0  0  0  0  0  0  0
   28.4190    8.3750    4.3600   O 0  0  0  0  0  0  0  0  0  0  0  0
   25.8330    5.0960    4.6500   C 0  0  0  0  0  0  0  0  0  0  0  0
   26.1710    5.7730    5.8240   C 0  0  0  0  0  0  0  0  0  0  0  0
   27.2670    8.4290    1.7190   C 0  0  0  0  0  0  0  0  0  0  0  0
   27.5150    8.9210    0.5010   C 0  0  0  0  0  0  0  0  0  0  0  0
  1  2  2  0  0  0  0
  1  3  1  0  0  0  0
  1  4  1  0  0  0  0
  2  5  1  0  0  0  0
  2  6  1  0  0  0  0
  3  7  2  0  0  0  0
  4  9  1  0  0  0  0
  5  8  2  0  0  0  0
  7  8  1  0  0  0  0
  9 10  2  0  0  0  0
M  END
>  <InstanceId>
1OV5_2LP_A_403

>  <ChemCompId>
2LP

>  <PdbId>
1OV5

>  <ChainId>
A

>  <ResidueNumber>
403

>  <InsertionCode>


>  <Model>
1

>  <AltIds>


>  <MissingHeavyAtoms>
0

>  <ObservedFormula>
C9 O

>  <Name>
2-ALLYLPHENOL

>  <SystematicName>
2-prop-2-enylphenol

>  <Synonyms>


>  <Type>
NON-POLYMER

>  <Formula>
C9 H10 O

>  <MolecularWeight>
134.175

>  <ModifiedDate>
2011-06-04

>  <Parent>


>  <OneLetterCode>


>  <SubcomponentList>


>  <AmbiguousFlag>
N

>  <InChI>
InChI=1S/C9H10O/c1-2-5-8-6-3-4-7-9(8)10/h2-4,6-7,10H,1,5H2

>  <InChIKey>
QIRNGVVZBINFMX-UHFFFAOYSA-N

>  <SMILES>
C=CCc1ccccc1O

$$$$
4I7M_2LP_A_202
  RCSB PDB12061712583D
Coordinates from PDB:4I7M:A:202 Model:1 without hydrogens
 10 10  0  0  0  0            999 V2000
    4.1590    8.8570    0.6720   C 0  0  0  0  0  0  0  0  0  0  0  0
    3.2490    9.3220    1.6030   C 0  0  0  0  0  0  0  0  0  0  0  0
    3.8740    7.6040    0.1560   C 0  0  0  0  0  0  0  0  0  0  0  0
    5.3480    9.6180    0.2900   C 0  0  0  0  0  0  0  0  0  0  0  0
    2.0950    8.5920    1.9620   C 0  0  0  0  0  0  0  0  0  0  0  0
    3.5050   10.5480    2.1830   O 0  0  0  0  0  0  0  0  0  0  0  0
    2.7170    6.8610    0.4720   C 0  0  0  0  0  0  0  0  0  0  0  0
    1.7870    7.3260    1.3850   C 0  0  0  0  0  0  0  0  0  0  0  0
    5.3180   10.7450   -0.6950   C 0  0  0  0  0  0  0  0  0  0  0  0
    4.3430   10.7180   -1.8410   C 0  0  0  0  0  0  0  0  0  0  0  0
  1  2  2  0  0  0  0
  1  3  1  0  0  0  0
  1  4  1  0  0  0  0
  2  5  1  0  0  0  0
  2  6  1  0  0  0  0
  3  7  2  0  0  0  0
  4  9  1  0  0  0  0
  5  8  2  0  0  0  0
  7  8  1  0  0  0  0
  9 10  2  0  0  0  0
M  END
>  <InstanceId>
4I7M_2LP_A_202

>  <ChemCompId>
2LP

>  <PdbId>
4I7M

>  <ChainId>
A

>  <ResidueNumber>
202

>  <InsertionCode>


>  <Model>
1

>  <AltIds>


>  <MissingHeavyAtoms>
0

>  <ObservedFormula>
C9 O

>  <Name>
2-ALLYLPHENOL

>  <SystematicName>
2-prop-2-enylphenol

>  <Synonyms>


>  <Type>
NON-POLYMER

>  <Formula>
C9 H10 O

>  <MolecularWeight>
134.175

>  <ModifiedDate>
2011-06-04

>  <Parent>


>  <OneLetterCode>


>  <SubcomponentList>


>  <AmbiguousFlag>
N

>  <InChI>
InChI=1S/C9H10O/c1-2-5-8-6-3-4-7-9(8)10/h2-4,6-7,10H,1,5H2

>  <InChIKey>
QIRNGVVZBINFMX-UHFFFAOYSA-N

>  <SMILES>
C=CCc1ccccc1O

$$$$
1LI3_3CH_A_401
  RCSB PDB12061703113D
Coordinates from PDB:1LI3:A:401 Model:1 without hydrogens
  8  8  0  0  0  0            999 V2000
   26.7240    5.1420    3.3130   C 0  0  0  0  0  0  0  0  0  0  0  0
   27.5210    5.8410    2.4050   C 0  0  0  0  0  0  0  0  0  0  0  0
   26.4670    5.7800    4.5160   C 0  0  0  0  0  0  0  0  0  0  0  0
   28.0720    7.0990    2.6510   C 0  0  0  0  0  0  0  0  0  0  0  0
   27.0030    7.0320    4.8100   C 0  0  0  0  0  0  0  0  0  0  0  0
   27.8030    7.6930    3.8740   C 0  0  0  0  0  0  0  0  0  0  0  0
   28.3730    8.9120    4.1230   O 0  0  0  0  0  0  0  0  0  0  0  0
   25.6770    5.1440    5.4360  Cl 0  0  0  0  0  0  0  0  0  0  0  0
  1  2  2  0  0  0  0
  1  3  1  0  0  0  0
  2  4  1  0  0  0  0
  3  5  2  0  0  0  0
  3  8  1  0  0  0  0
  4  6  2  0  0  0  0
  5  6  1  0  0  0  0
  6  7  1  0  0  0  0
M  END
>  <InstanceId>
1LI3_3CH_A_401

>  <ChemCompId>
3CH

>  <PdbId>
1LI3

>  <ChainId>
A

>  <ResidueNumber>
401

>  <InsertionCode>


>  <Model>
1

>  <AltIds>


>  <MissingHeavyAtoms>
0

>  <ObservedFormula>
C6 O Cl

>  <Name>
3-CHLOROPHENOL

>  <SystematicName>
3-chlorophenol

>  <Synonyms>


>  <Type>
NON-POLYMER

>  <Formula>
C6 H5 Cl O

>  <MolecularWeight>
128.556

>  <ModifiedDate>
2011-06-04

>  <Parent>


>  <OneLetterCode>


>  <SubcomponentList>


>  <AmbiguousFlag>
N

>  <InChI>
InChI=1S/C6H5ClO/c7-5-2-1-3-6(8)4-5/h1-4,8H

>  <InChIKey>
HORNXRXVQWOLPJ-UHFFFAOYSA-N

>  <SMILES>
c1cc(cc(c1)Cl)O

$$$$
4W56_3GY_A_200
  RCSB PDB12061715543D
Coordinates from PDB:4W56:A:200 Model:1 without hydrogens
 10 10  0  0  0  0            999 V2000
   36.2110  -24.5150  -15.2940   C 0  0  0  0  0  0  0  0  0  0  0  0
   35.6620  -24.2100  -13.8930   C 0  0  0  0  0  0  0  0  0  0  0  0
   36.7740  -24.0810  -12.8440   C 0  0  0  0  0  0  0  0  0  0  0  0
   36.1850  -23.7180  -11.4760   C 0  0  0  0  0  0  0  0  0  0  0  0
   37.5800  -25.3830  -12.7230   C 0  0  0  0  0  0  0  0  0  0  0  0
   37.3990  -26.2120  -11.6190   C 0  0  0  0  0  0  0  0  0  0  0  0
   38.1320  -27.3900  -11.5030   C 0  0  0  0  0  0  0  0  0  0  0  0
   39.0510  -27.7390  -12.4890   C 0  0  0  0  0  0  0  0  0  0  0  0
   39.2350  -26.9140  -13.5890   C 0  0  0  0  0  0  0  0  0  0  0  0
   38.5060  -25.7320  -13.6990   C 0  0  0  0  0  0  0  0  0  0  0  0
  1  2  1  0  0  0  0
  2  3  1  0  0  0  0
 10  9  2  0  0  0  0
 10  5  1  0  0  0  0
  9  8  1  0  0  0  0
  3  5  1  0  0  0  0
  3  4  1  0  0  0  0
  5  6  2  0  0  0  0
  8  7  2  0  0  0  0
  6  7  1  0  0  0  0
M  END
>  <InstanceId>
4W56_3GY_A_200

>  <ChemCompId>
3GY

>  <PdbId>
4W56

>  <ChainId>
A

>  <ResidueNumber>
200

>  <InsertionCode>


>  <Model>
1

>  <AltIds>


>  <MissingHeavyAtoms>
0

>  <ObservedFormula>
C10

>  <Name>
(2R)-butan-2-ylbenzene

>  <SystematicName>
[(2R)-butan-2-yl]benzene

>  <Synonyms>
sec-Butylbenzene

>  <Type>
NON-POLYMER

>  <Formula>
C10 H14

>  <MolecularWeight>
134.218

>  <ModifiedDate>
2015-03-27

>  <Parent>


>  <OneLetterCode>


>  <SubcomponentList>


>  <AmbiguousFlag>
N

>  <InChI>
InChI=1S/C10H14/c1-3-9(2)10-7-5-4-6-8-10/h4-9H,3H2,1-2H3/t9-/m1/s1

>  <InChIKey>
ZJMWRROPUADPEA-SECBINFHSA-N

>  <SMILES>
CC[C@@H](C)c1ccccc1

$$$$
4W59_3GZ_A_200
  RCSB PDB12061715543D
Coordinates from PDB:4W59:A:200 Model:1 without hydrogens
 12 12  0  0  0  0            999 V2000
  -32.5870   12.6930    4.6340   C 0  0  0  0  0  0  0  0  0  0  0  0
  -33.6160   11.7610    3.9790   C 0  0  0  0  0  0  0  0  0  0  0  0
  -32.9210   10.7210    3.0850   C 0  0  0  0  0  0  0  0  0  0  0  0
  -33.9340    9.7750    2.4200   C 0  0  0  0  0  0  0  0  0  0  0  0
  -33.2670    8.7030    1.5340   C 0  0  0  0  0  0  0  0  0  0  0  0
  -32.3410    7.7650    2.3220   C 0  0  0  0  0  0  0  0  0  0  0  0
  -33.1230    7.0140    3.4160   C 0  0  0  0  0  0  0  0  0  0  0  0
  -33.8830    5.8970    3.1020   C 0  0  0  0  0  0  0  0  0  0  0  0
  -34.5930    5.2370    4.1000   C 0  0  0  0  0  0  0  0  0  0  0  0
  -34.5390    5.6920    5.4080   C 0  0  0  0  0  0  0  0  0  0  0  0
  -33.7820    6.8110    5.7200   C 0  0  0  0  0  0  0  0  0  0  0  0
  -33.0740    7.4700    4.7250   C 0  0  0  0  0  0  0  0  0  0  0  0
  5  6  1  0  0  0  0
  5  4  1  0  0  0  0
  6  7  1  0  0  0  0
  4  3  1  0  0  0  0
  3  2  1  0  0  0  0
  8  7  2  0  0  0  0
  8  9  1  0  0  0  0
  7 12  1  0  0  0  0
  2  1  1  0  0  0  0
  9 10  2  0  0  0  0
 12 11  2  0  0  0  0
 10 11  1  0  0  0  0
M  END
>  <InstanceId>
4W59_3GZ_A_200

>  <ChemCompId>
3GZ

>  <PdbId>
4W59

>  <ChainId>
A

>  <ResidueNumber>
200

>  <InsertionCode>


>  <Model>
1

>  <AltIds>


>  <MissingHeavyAtoms>
0

>  <ObservedFormula>
C12

>  <Name>
hexylbenzene

>  <SystematicName>
hexylbenzene

>  <Synonyms>


>  <Type>
NON-POLYMER

>  <Formula>
C12 H18

>  <MolecularWeight>
162.271

>  <ModifiedDate>
2015-03-27

>  <Parent>


>  <OneLetterCode>


>  <SubcomponentList>


>  <AmbiguousFlag>
N

>  <InChI>
InChI=1S/C12H18/c1-2-3-4-6-9-12-10-7-5-8-11-12/h5,7-8,10-11H,2-4,6,9H2,1H3

>  <InChIKey>
LTEQMZWBSYACLV-UHFFFAOYSA-N

>  <SMILES>
CCCCCCc1ccccc1

$$$$
4W55_3H0_A_200
  RCSB PDB12061715543D
Coordinates from PDB:4W55:A:200 Model:1 without hydrogens
  9  9  0  0  0  0            999 V2000
  -38.8110   19.2810   15.7920   C 0  0  0  0  0  0  0  0  0  0  0  0
  -39.8230   19.0370   14.6800   C 0  0  0  0  0  0  0  0  0  0  0  0
  -40.2380   20.3540   14.0150   C 0  0  0  0  0  0  0  0  0  0  0  0
  -41.2100   20.0750   12.8830   C 0  0  0  0  0  0  0  0  0  0  0  0
  -40.6930   19.7270   11.6490   C 0  0  0  0  0  0  0  0  0  0  0  0
  -41.5120   19.4530   10.5630   C 0  0  0  0  0  0  0  0  0  0  0  0
  -42.8900   19.5150   10.7330   C 0  0  0  0  0  0  0  0  0  0  0  0
  -43.4140   19.8630   11.9720   C 0  0  0  0  0  0  0  0  0  0  0  0
  -42.5940   20.1500   13.0600   C 0  0  0  0  0  0  0  0  0  0  0  0
  6  7  2  0  0  0  0
  6  5  1  0  0  0  0
  7  8  1  0  0  0  0
  5  4  2  0  0  0  0
  8  9  2  0  0  0  0
  4  9  1  0  0  0  0
  4  3  1  0  0  0  0
  3  2  1  0  0  0  0
  2  1  1  0  0  0  0
M  END
>  <InstanceId>
4W55_3H0_A_200

>  <ChemCompId>
3H0

>  <PdbId>
4W55

>  <ChainId>
A

>  <ResidueNumber>
200

>  <InsertionCode>


>  <Model>
1

>  <AltIds>


>  <MissingHeavyAtoms>
0

>  <ObservedFormula>
C9

>  <Name>
propylbenzene

>  <SystematicName>
propylbenzene

>  <Synonyms>


>  <Type>
NON-POLYMER

>  <Formula>
C9 H12

>  <MolecularWeight>
120.192

>  <ModifiedDate>
2015-03-27

>  <Parent>


>  <OneLetterCode>


>  <SubcomponentList>


>  <AmbiguousFlag>
N

>  <InChI>
InChI=1S/C9H12/c1-2-6-9-7-4-3-5-8-9/h3-5,7-8H,2,6H2,1H3

>  <InChIKey>
ODLMAHJVESYWTB-UHFFFAOYSA-N

>  <SMILES>
CCCc1ccccc1

$$$$
4W58_3H2_A_200
  RCSB PDB12061715543D
Coordinates from PDB:4W58:A:200 Model:1 without hydrogens
 11 11  0  0  0  0            999 V2000
  -34.0120   13.4420    4.8780   C 0  0  0  0  0  0  0  0  0  0  0  0
  -34.3270   12.1640    4.2070   C 0  0  0  0  0  0  0  0  0  0  0  0
  -33.3500   11.0720    4.5480   C 0  0  0  0  0  0  0  0  0  0  0  0
  -33.8650    9.7320    4.0480   C 0  0  0  0  0  0  0  0  0  0  0  0
  -32.8600    8.6000    4.1920   C 0  0  0  0  0  0  0  0  0  0  0  0
  -33.4720    7.2050    4.1610   C 0  0  0  0  0  0  0  0  0  0  0  0
  -34.1160    6.7220    5.2830   C 0  0  0  0  0  0  0  0  0  0  0  0
  -34.7010    5.4880    5.2860   C 0  0  0  0  0  0  0  0  0  0  0  0
  -34.6800    4.7230    4.1560   C 0  0  0  0  0  0  0  0  0  0  0  0
  -34.0370    5.1760    3.0330   C 0  0  0  0  0  0  0  0  0  0  0  0
  -33.4430    6.4120    3.0360   C 0  0  0  0  0  0  0  0  0  0  0  0
 10 11  2  0  0  0  0
 10  9  1  0  0  0  0
 11  6  1  0  0  0  0
  4  5  1  0  0  0  0
  4  3  1  0  0  0  0
  9  8  2  0  0  0  0
  6  5  1  0  0  0  0
  6  7  2  0  0  0  0
  2  3  1  0  0  0  0
  2  1  1  0  0  0  0
  7  8  1  0  0  0  0
M  END
>  <InstanceId>
4W58_3H2_A_200

>  <ChemCompId>
3H2

>  <PdbId>
4W58

>  <ChainId>
A

>  <ResidueNumber>
200

>  <InsertionCode>


>  <Model>
1

>  <AltIds>


>  <MissingHeavyAtoms>
0

>  <ObservedFormula>
C11

>  <Name>
pentylbenzene

>  <SystematicName>
pentylbenzene

>  <Synonyms>


>  <Type>
NON-POLYMER

>  <Formula>
C11 H16

>  <MolecularWeight>
148.245

>  <ModifiedDate>
2015-03-27

>  <Parent>


>  <OneLetterCode>


>  <SubcomponentList>


>  <AmbiguousFlag>
N

>  <InChI>
InChI=1S/C11H16/c1-2-3-5-8-11-9-6-4-7-10-11/h4,6-7,9-10H,2-3,5,8H2,1H3

>  <InChIKey>
PWATWSYOIIXYMA-UHFFFAOYSA-N

>  <SMILES>
CCCCCc1ccccc1

$$$$
1OWZ_4FA_A_409
  RCSB PDB12061703363D
Coordinates from PDB:1OWZ:A:409 Model:1 without hydrogens
 10 10  0  0  0  0            999 V2000
   27.3840    6.7690    3.1430   C 0  0  0  0  0  0  0  0  0  0  0  0
   27.4730    7.5180    4.3090   C 0  0  0  0  0  0  0  0  0  0  0  0
   26.7180    5.5450    3.1030   C 0  0  0  0  0  0  0  0  0  0  0  0
   28.0270    7.3200    1.9420   C 0  0  0  0  0  0  0  0  0  0  0  0
   26.8920    7.0220    5.4740   C 0  0  0  0  0  0  0  0  0  0  0  0
   26.1320    5.0610    4.2770   C 0  0  0  0  0  0  0  0  0  0  0  0
   26.2180    5.8010    5.4550   C 0  0  0  0  0  0  0  0  0  0  0  0
   25.6560    5.3080    6.5710   F 0  0  0  0  0  0  0  0  0  0  0  0
   27.8970    8.7990    1.9440   C 0  0  0  0  0  0  0  0  0  0  0  0
   28.1960    9.1310    0.6030   O 0  0  0  0  0  0  0  0  0  0  0  0
  1  2  2  0  0  0  0
  1  3  1  0  0  0  0
  1  4  1  0  0  0  0
  2  5  1  0  0  0  0
  3  6  2  0  0  0  0
  4  9  1  0  0  0  0
  5  7  2  0  0  0  0
  6  7  1  0  0  0  0
  7  8  1  0  0  0  0
  9 10  1  0  0  0  0
M  END
>  <InstanceId>
1OWZ_4FA_A_409

>  <ChemCompId>
4FA

>  <PdbId>
1OWZ

>  <ChainId>
A

>  <ResidueNumber>
409

>  <InsertionCode>


>  <Model>
1

>  <AltIds>


>  <MissingHeavyAtoms>
0

>  <ObservedFormula>
C8 O F

>  <Name>
4-FLUOROPHENETHYL ALCOHOL

>  <SystematicName>
2-(4-fluorophenyl)ethanol

>  <Synonyms>


>  <Type>
NON-POLYMER

>  <Formula>
C8 H9 F O

>  <MolecularWeight>
140.155

>  <ModifiedDate>
2011-06-04

>  <Parent>


>  <OneLetterCode>


>  <SubcomponentList>


>  <AmbiguousFlag>
N

>  <InChI>
InChI=1S/C8H9FO/c9-8-3-1-7(2-4-8)5-6-10/h1-4,10H,5-6H2

>  <InChIKey>
MWUVGXCUHWKQJE-UHFFFAOYSA-N

>  <SMILES>
c1cc(ccc1CCO)F

$$$$
1LGX_5AN_A_401
  RCSB PDB12061703113D
Coordinates from PDB:1LGX:A:401 Model:1 without hydrogens
  9  9  0  0  0  0            999 V2000
   26.0820    5.6040    5.4480   C 0  0  0  0  0  0  0  0  0  0  0  0
   26.7060    6.8340    5.6530   C 0  0  0  0  0  0  0  0  0  0  0  0
   26.2400    4.9630    4.2190   C 0  0  0  0  0  0  0  0  0  0  0  0
   27.4580    7.4050    4.6330   C 0  0  0  0  0  0  0  0  0  0  0  0
   27.0100    5.5350    3.2060   C 0  0  0  0  0  0  0  0  0  0  0  0
   27.6200    6.7730    3.4030   C 0  0  0  0  0  0  0  0  0  0  0  0
   28.4290    7.3270    2.4410   N 0  0  0  0  0  0  0  0  0  0  0  0
   26.5700    7.5010    6.7480   F 0  0  0  0  0  0  0  0  0  0  0  0
   25.7170    3.8020    3.9870   F 0  0  0  0  0  0  0  0  0  0  0  0
  1  2  2  0  0  0  0
  1  3  1  0  0  0  0
  2  4  1  0  0  0  0
  2  8  1  0  0  0  0
  3  5  2  0  0  0  0
  3  9  1  0  0  0  0
  4  6  2  0  0  0  0
  5  6  1  0  0  0  0
  6  7  1  0  0  0  0
M  END
>  <InstanceId>
1LGX_5AN_A_401

>  <ChemCompId>
5AN

>  <PdbId>
1LGX

>  <ChainId>
A

>  <ResidueNumber>
401

>  <InsertionCode>


>  <Model>
1

>  <AltIds>


>  <MissingHeavyAtoms>
0

>  <ObservedFormula>
C6 N F2

>  <Name>
3,5-DIFLUOROANILINE

>  <SystematicName>
3,5-difluoroaniline

>  <Synonyms>


>  <Type>
NON-POLYMER

>  <Formula>
C6 H5 F2 N

>  <MolecularWeight>
129.107

>  <ModifiedDate>
2011-06-04

>  <Parent>


>  <OneLetterCode>


>  <SubcomponentList>


>  <AmbiguousFlag>
N

>  <InChI>
InChI=1S/C6H5F2N/c7-4-1-5(8)3-6(9)2-4/h1-3H,9H2

>  <InChIKey>
KQOIBXZRCYFZSO-UHFFFAOYSA-N

>  <SMILES>
c1c(cc(cc1F)F)N

$$$$
1LI6_5MP_A_400
  RCSB PDB12061703113D
Coordinates from PDB:1LI6:A:400 Model:1 without hydrogens
  6  6  0  0  0  0            999 V2000
   26.7300    5.9470    4.3230   C 0  0  0  0  0  0  0  0  0  0  0  0
   27.1480    7.0620    5.1970   C 0  0  0  0  0  0  0  0  0  0  0  0
   27.3380    6.1470    3.1460   C 0  0  0  0  0  0  0  0  0  0  0  0
   25.8010    4.8230    4.6960   C 0  0  0  0  0  0  0  0  0  0  0  0
   27.9620    7.8210    4.4460   C 0  0  0  0  0  0  0  0  0  0  0  0
   28.0940    7.2770    3.2070   N 0  0  0  0  0  0  0  0  0  0  0  0
  1  2  1  0  0  0  0
  1  3  2  0  0  0  0
  1  4  1  0  0  0  0
  2  5  2  0  0  0  0
  3  6  1  0  0  0  0
  5  6  1  0  0  0  0
M  END
>  <InstanceId>
1LI6_5MP_A_400

>  <ChemCompId>
5MP

>  <PdbId>
1LI6

>  <ChainId>
A

>  <ResidueNumber>
400

>  <InsertionCode>


>  <Model>
1

>  <AltIds>


>  <MissingHeavyAtoms>
0

>  <ObservedFormula>
C5 N

>  <Name>
5-METHYLPYRROLE

>  <SystematicName>
3-methyl-1H-pyrrole

>  <Synonyms>


>  <Type>
NON-POLYMER

>  <Formula>
C5 H7 N

>  <MolecularWeight>
81.116

>  <ModifiedDate>
2011-06-04

>  <Parent>


>  <OneLetterCode>


>  <SubcomponentList>


>  <AmbiguousFlag>
N

>  <InChI>
InChI=1S/C5H7N/c1-5-2-3-6-4-5/h2-4,6H,1H3

>  <InChIKey>
FEKWWZCCJDUWLY-UHFFFAOYSA-N

>  <SMILES>
Cc1cc[nH]c1

$$$$
5JWS_6OQ_A_201
  RCSB PDB12061718313D
Coordinates from PDB:5JWS:A:201 Model:1 without hydrogens
  8  8  0  0  0  0            999 V2000
  -32.8530    8.5150    1.3770   C 0  0  0  0  0  0  0  0  0  0  0  0
  -32.0800    7.5840    2.2600   C 0  0  0  0  0  0  0  0  0  0  0  0
  -33.6510    5.7740    3.1100   N 0  0  0  0  0  0  0  0  0  0  0  0
  -34.3470    5.2150    4.0490   C 0  0  0  0  0  0  0  0  0  0  0  0
  -34.4570    5.6600    5.3700   C 0  0  0  0  0  0  0  0  0  0  0  0
  -33.7970    6.7680    5.7880   C 0  0  0  0  0  0  0  0  0  0  0  0
  -32.9450    7.5170    4.8220   C 0  0  0  0  0  0  0  0  0  0  0  0
  -32.9370    6.8970    3.3810   B 0  0  0  0  0  0  0  0  0  0  0  0
  1  2  1  0  0  0  0
  2  8  1  0  0  0  0
  3  8  1  0  0  0  0
  3  4  1  0  0  0  0
  8  7  1  0  0  0  0
  4  5  2  0  0  0  0
  7  6  2  0  0  0  0
  5  6  1  0  0  0  0
M  END
>  <InstanceId>
5JWS_6OQ_A_201

>  <ChemCompId>
6OQ

>  <PdbId>
5JWS

>  <ChainId>
A

>  <ResidueNumber>
201

>  <InsertionCode>


>  <Model>
1

>  <AltIds>


>  <MissingHeavyAtoms>
0

>  <ObservedFormula>
C6 N B

>  <Name>
2-ethyl-1,2-dihydro-1,2-azaborinine

>  <SystematicName>
2-ethyl-1~{H}-1,2-azaborinine

>  <Synonyms>


>  <Type>
NON-POLYMER

>  <Formula>
C6 H10 B N

>  <MolecularWeight>
106.961

>  <ModifiedDate>
2016-09-16

>  <Parent>


>  <OneLetterCode>


>  <SubcomponentList>


>  <AmbiguousFlag>
N

>  <InChI>
InChI=1S/C6H10BN/c1-2-7-5-3-4-6-8-7/h3-6,8H,2H2,1H3

>  <InChIKey>
LWNVLMFFYVOFEQ-UHFFFAOYSA-N

>  <SMILES>
B1(C=CC=CN1)CC

$$$$
5JWW_6OQ_A_202
  RCSB PDB12061718313D
Coordinates from PDB:5JWW:A:202 Model:1 without hydrogens
  8  8  0  0  0  0            999 V2000
    2.9340   42.1710    3.4780   C 0  0  0  0  0  0  0  0  0  0  0  0
    2.4510   43.0940    4.5920   C 0  0  0  0  0  0  0  0  0  0  0  0
    2.5090   45.2800    3.1200   N 0  0  0  0  0  0  0  0  0  0  0  0
    2.9660   46.5370    2.8220   C 0  0  0  0  0  0  0  0  0  0  0  0
    3.8900   47.1480    3.6130   C 0  0  0  0  0  0  0  0  0  0  0  0
    4.4150   46.4920    4.7610   C 0  0  0  0  0  0  0  0  0  0  0  0
    4.0020   45.2440    5.1090   C 0  0  0  0  0  0  0  0  0  0  0  0
    2.9780   44.5630    4.2500   B 0  0  0  0  0  0  0  0  0  0  0  0
  1  2  1  0  0  0  0
  2  8  1  0  0  0  0
  3  8  1  0  0  0  0
  3  4  1  0  0  0  0
  8  7  1  0  0  0  0
  4  5  2  0  0  0  0
  7  6  2  0  0  0  0
  5  6  1  0  0  0  0
M  END
>  <InstanceId>
5JWW_6OQ_A_202

>  <ChemCompId>
6OQ

>  <PdbId>
5JWW

>  <ChainId>
A

>  <ResidueNumber>
202

>  <InsertionCode>


>  <Model>
1

>  <AltIds>


>  <MissingHeavyAtoms>
0

>  <ObservedFormula>
C6 N B

>  <Name>
2-ethyl-1,2-dihydro-1,2-azaborinine

>  <SystematicName>
2-ethyl-1~{H}-1,2-azaborinine

>  <Synonyms>


>  <Type>
NON-POLYMER

>  <Formula>
C6 H10 B N

>  <MolecularWeight>
106.961

>  <ModifiedDate>
2016-09-16

>  <Parent>


>  <OneLetterCode>


>  <SubcomponentList>


>  <AmbiguousFlag>
N

>  <InChI>
InChI=1S/C6H10BN/c1-2-7-5-3-4-6-8-7/h3-6,8H,2H2,1H3

>  <InChIKey>
LWNVLMFFYVOFEQ-UHFFFAOYSA-N

>  <SMILES>
B1(C=CC=CN1)CC

$$$$
3GUK_ACT_B_165
  RCSB PDB12061708473D
Coordinates from PDB:3GUK:B:165 Model:1 without hydrogens
  4  3  0  0  0  0            999 V2000
   18.5160   11.1640    4.0750   C 0  0  0  0  0  0  0  0  0  0  0  0
   19.2880   10.1870    4.1330   O 0  0  0  0  0  0  0  0  0  0  0  0
   18.5620   11.9940    5.0100   O 0  5  0  0  0  0  0  0  0  0  0  0
   17.6020   11.3090    2.9270   C 0  0  0  0  0  0  0  0  0  0  0  0
  1  2  2  0  0  0  0
  1  3  1  0  0  0  0
  1  4  1  0  0  0  0
M  CHG  1   3  -1
M  END
>  <InstanceId>
3GUK_ACT_B_165

>  <ChemCompId>
ACT

>  <PdbId>
3GUK

>  <ChainId>
B

>  <ResidueNumber>
165

>  <InsertionCode>


>  <Model>
1

>  <AltIds>


>  <MissingHeavyAtoms>
0

>  <ObservedFormula>
C2 O2

>  <Name>
ACETATE ION

>  <SystematicName>
ethanoate

>  <Synonyms>


>  <Type>
NON-POLYMER

>  <Formula>
C2 H3 O2

>  <MolecularWeight>
59.044

>  <ModifiedDate>
2011-06-04

>  <Parent>


>  <OneLetterCode>


>  <SubcomponentList>


>  <AmbiguousFlag>
N

>  <InChI>
InChI=1S/C2H4O2/c1-2(3)4/h1H3,(H,3,4)/p-1

>  <InChIKey>
QTBSBXVTEAMEQO-UHFFFAOYSA-M

>  <SMILES>
CC(=O)[O-]

$$$$
3GUL_ACT_A_165
  RCSB PDB12061708473D
Coordinates from PDB:3GUL:A:165 Model:1 without hydrogens
  4  3  0  0  0  0            999 V2000
   18.3550   10.8240    4.0680   C 0  0  0  0  0  0  0  0  0  0  0  0
   19.5470   10.8250    4.4650   O 0  0  0  0  0  0  0  0  0  0  0  0
   17.6000    9.9430    4.5220   O 0  5  0  0  0  0  0  0  0  0  0  0
   17.8470   11.8340    3.0990   C 0  0  0  0  0  0  0  0  0  0  0  0
  1  2  2  0  0  0  0
  1  3  1  0  0  0  0
  1  4  1  0  0  0  0
M  CHG  1   3  -1
M  END
>  <InstanceId>
3GUL_ACT_A_165

>  <ChemCompId>
ACT

>  <PdbId>
3GUL

>  <ChainId>
A

>  <ResidueNumber>
165

>  <InsertionCode>


>  <Model>
1

>  <AltIds>


>  <MissingHeavyAtoms>
0

>  <ObservedFormula>
C2 O2

>  <Name>
ACETATE ION

>  <SystematicName>
ethanoate

>  <Synonyms>


>  <Type>
NON-POLYMER

>  <Formula>
C2 H3 O2

>  <MolecularWeight>
59.044

>  <ModifiedDate>
2011-06-04

>  <Parent>


>  <OneLetterCode>


>  <SubcomponentList>


>  <AmbiguousFlag>
N

>  <InChI>
InChI=1S/C2H4O2/c1-2(3)4/h1H3,(H,3,4)/p-1

>  <InChIKey>
QTBSBXVTEAMEQO-UHFFFAOYSA-M

>  <SMILES>
CC(=O)[O-]

$$$$
3GUM_ACT_A_166
  RCSB PDB12061708473D
Coordinates from PDB:3GUM:A:166 Model:1 without hydrogens
  4  3  0  0  0  0            999 V2000
   18.3230   11.0160    4.1630   C 0  0  0  0  0  0  0  0  0  0  0  0
   19.4320   11.0710    4.7380   O 0  0  0  0  0  0  0  0  0  0  0  0
   17.5400   10.1240    4.5490   O 0  5  0  0  0  0  0  0  0  0  0  0
   17.9840   11.9760    3.0790   C 0  0  0  0  0  0  0  0  0  0  0  0
  1  2  2  0  0  0  0
  1  3  1  0  0  0  0
  1  4  1  0  0  0  0
M  CHG  1   3  -1
M  END
>  <InstanceId>
3GUM_ACT_A_166

>  <ChemCompId>
ACT

>  <PdbId>
3GUM

>  <ChainId>
A

>  <ResidueNumber>
166

>  <InsertionCode>


>  <Model>
1

>  <AltIds>


>  <MissingHeavyAtoms>
0

>  <ObservedFormula>
C2 O2

>  <Name>
ACETATE ION

>  <SystematicName>
ethanoate

>  <Synonyms>


>  <Type>
NON-POLYMER

>  <Formula>
C2 H3 O2

>  <MolecularWeight>
59.044

>  <ModifiedDate>
2011-06-04

>  <Parent>


>  <OneLetterCode>


>  <SubcomponentList>


>  <AmbiguousFlag>
N

>  <InChI>
InChI=1S/C2H4O2/c1-2(3)4/h1H3,(H,3,4)/p-1

>  <InChIKey>
QTBSBXVTEAMEQO-UHFFFAOYSA-M

>  <SMILES>
CC(=O)[O-]

$$$$
4E97_ACT_B_201
  RCSB PDB12061712213D
Coordinates from PDB:4E97:B:201 Model:1 without hydrogens
  4  3  0  0  0  0            999 V2000
   14.1130   21.9710  -10.9160   C 0  0  0  0  0  0  0  0  0  0  0  0
   15.3140   22.3250  -10.9000   O 0  0  0  0  0  0  0  0  0  0  0  0
   13.2740   22.6990  -10.3480   O 0  5  0  0  0  0  0  0  0  0  0  0
   13.6520   20.7290  -11.6080   C 0  0  0  0  0  0  0  0  0  0  0  0
  1  2  2  0  0  0  0
  1  3  1  0  0  0  0
  1  4  1  0  0  0  0
M  CHG  1   3  -1
M  END
>  <InstanceId>
4E97_ACT_B_201

>  <ChemCompId>
ACT

>  <PdbId>
4E97

>  <ChainId>
B

>  <ResidueNumber>
201

>  <InsertionCode>


>  <Model>
1

>  <AltIds>


>  <MissingHeavyAtoms>
0

>  <ObservedFormula>
C2 O2

>  <Name>
ACETATE ION

>  <SystematicName>
ethanoate

>  <Synonyms>


>  <Type>
NON-POLYMER

>  <Formula>
C2 H3 O2

>  <MolecularWeight>
59.044

>  <ModifiedDate>
2011-06-04

>  <Parent>


>  <OneLetterCode>


>  <SubcomponentList>


>  <AmbiguousFlag>
N

>  <InChI>
InChI=1S/C2H4O2/c1-2(3)4/h1H3,(H,3,4)/p-1

>  <InChIKey>
QTBSBXVTEAMEQO-UHFFFAOYSA-M

>  <SMILES>
CC(=O)[O-]

$$$$
4EKP_ACT_A_206
  RCSB PDB12061712243D
Coordinates from PDB:4EKP:A:206 Model:1 without hydrogens
  4  3  0  0  0  0            999 V2000
    8.1060    9.1190   22.2570   C 0  0  0  0  0  0  0  0  0  0  0  0
    9.2570    8.9850   21.7850   O 0  0  0  0  0  0  0  0  0  0  0  0
    7.6650   10.2870   22.3240   O 0  5  0  0  0  0  0  0  0  0  0  0
    7.3030    7.9360   22.7100   C 0  0  0  0  0  0  0  0  0  0  0  0
  1  2  2  0  0  0  0
  1  3  1  0  0  0  0
  1  4  1  0  0  0  0
M  CHG  1   3  -1
M  END
>  <InstanceId>
4EKP_ACT_A_206

>  <ChemCompId>
ACT

>  <PdbId>
4EKP

>  <ChainId>
A

>  <ResidueNumber>
206

>  <InsertionCode>


>  <Model>
1

>  <AltIds>


>  <MissingHeavyAtoms>
0

>  <ObservedFormula>
C2 O2

>  <Name>
ACETATE ION

>  <SystematicName>
ethanoate

>  <Synonyms>


>  <Type>
NON-POLYMER

>  <Formula>
C2 H3 O2

>  <MolecularWeight>
59.044

>  <ModifiedDate>
2011-06-04

>  <Parent>


>  <OneLetterCode>


>  <SubcomponentList>


>  <AmbiguousFlag>
N

>  <InChI>
InChI=1S/C2H4O2/c1-2(3)4/h1H3,(H,3,4)/p-1

>  <InChIKey>
QTBSBXVTEAMEQO-UHFFFAOYSA-M

>  <SMILES>
CC(=O)[O-]

$$$$
4EKQ_ACT_B_205
  RCSB PDB12061712243D
Coordinates from PDB:4EKQ:B:205 Model:1 without hydrogens
  4  3  0  0  0  0            999 V2000
   34.0770    9.9050  -25.7280   C 0  0  0  0  0  0  0  0  0  0  0  0
   33.9810   11.1480  -25.6980   O 0  0  0  0  0  0  0  0  0  0  0  0
   34.3270    9.3910  -24.6300   O 0  5  0  0  0  0  0  0  0  0  0  0
   33.8400    9.1000  -26.9830   C 0  0  0  0  0  0  0  0  0  0  0  0
  1  2  2  0  0  0  0
  1  3  1  0  0  0  0
  1  4  1  0  0  0  0
M  CHG  1   3  -1
M  END
>  <InstanceId>
4EKQ_ACT_B_205

>  <ChemCompId>
ACT

>  <PdbId>
4EKQ

>  <ChainId>
B

>  <ResidueNumber>
205

>  <InsertionCode>


>  <Model>
1

>  <AltIds>


>  <MissingHeavyAtoms>
0

>  <ObservedFormula>
C2 O2

>  <Name>
ACETATE ION

>  <SystematicName>
ethanoate

>  <Synonyms>


>  <Type>
NON-POLYMER

>  <Formula>
C2 H3 O2

>  <MolecularWeight>
59.044

>  <ModifiedDate>
2011-06-04

>  <Parent>


>  <OneLetterCode>


>  <SubcomponentList>


>  <AmbiguousFlag>
N

>  <InChI>
InChI=1S/C2H4O2/c1-2(3)4/h1H3,(H,3,4)/p-1

>  <InChIKey>
QTBSBXVTEAMEQO-UHFFFAOYSA-M

>  <SMILES>
CC(=O)[O-]

$$$$
4EKR_ACT_A_206
  RCSB PDB12061712243D
Coordinates from PDB:4EKR:A:206 Model:1 without hydrogens
  4  3  0  0  0  0            999 V2000
    8.0120    9.5300   22.1910   C 0  0  0  0  0  0  0  0  0  0  0  0
    9.0780    9.0600   21.7390   O 0  0  0  0  0  0  0  0  0  0  0  0
    8.0770   10.6640   22.6730   O 0  5  0  0  0  0  0  0  0  0  0  0
    6.7200    8.7800   22.1370   C 0  0  0  0  0  0  0  0  0  0  0  0
  1  2  2  0  0  0  0
  1  3  1  0  0  0  0
  1  4  1  0  0  0  0
M  CHG  1   3  -1
M  END
>  <InstanceId>
4EKR_ACT_A_206

>  <ChemCompId>
ACT

>  <PdbId>
4EKR

>  <ChainId>
A

>  <ResidueNumber>
206

>  <InsertionCode>


>  <Model>
1

>  <AltIds>


>  <MissingHeavyAtoms>
0

>  <ObservedFormula>
C2 O2

>  <Name>
ACETATE ION

>  <SystematicName>
ethanoate

>  <Synonyms>


>  <Type>
NON-POLYMER

>  <Formula>
C2 H3 O2

>  <MolecularWeight>
59.044

>  <ModifiedDate>
2011-06-04

>  <Parent>


>  <OneLetterCode>


>  <SubcomponentList>


>  <AmbiguousFlag>
N

>  <InChI>
InChI=1S/C2H4O2/c1-2(3)4/h1H3,(H,3,4)/p-1

>  <InChIKey>
QTBSBXVTEAMEQO-UHFFFAOYSA-M

>  <SMILES>
CC(=O)[O-]

$$$$
4EKS_ACT_A_206
  RCSB PDB12061712243D
Coordinates from PDB:4EKS:A:206 Model:1 without hydrogens
  4  3  0  0  0  0            999 V2000
    7.8410    9.4230   22.1830   C 0  0  0  0  0  0  0  0  0  0  0  0
    9.0750    9.2480   22.1960   O 0  0  0  0  0  0  0  0  0  0  0  0
    7.1360    8.4010   22.0110   O 0  5  0  0  0  0  0  0  0  0  0  0
    7.2380   10.7780   22.3530   C 0  0  0  0  0  0  0  0  0  0  0  0
  1  2  2  0  0  0  0
  1  3  1  0  0  0  0
  1  4  1  0  0  0  0
M  CHG  1   3  -1
M  END
>  <InstanceId>
4EKS_ACT_A_206

>  <ChemCompId>
ACT

>  <PdbId>
4EKS

>  <ChainId>
A

>  <ResidueNumber>
206

>  <InsertionCode>


>  <Model>
1

>  <AltIds>


>  <MissingHeavyAtoms>
0

>  <ObservedFormula>
C2 O2

>  <Name>
ACETATE ION

>  <SystematicName>
ethanoate

>  <Synonyms>


>  <Type>
NON-POLYMER

>  <Formula>
C2 H3 O2

>  <MolecularWeight>
59.044

>  <ModifiedDate>
2011-06-04

>  <Parent>


>  <OneLetterCode>


>  <SubcomponentList>


>  <AmbiguousFlag>
N

>  <InChI>
InChI=1S/C2H4O2/c1-2(3)4/h1H3,(H,3,4)/p-1

>  <InChIKey>
QTBSBXVTEAMEQO-UHFFFAOYSA-M

>  <SMILES>
CC(=O)[O-]

$$$$
4I7J_ACT_A_206
  RCSB PDB12061712583D
Coordinates from PDB:4I7J:A:206 Model:1 without hydrogens
  4  3  0  0  0  0            999 V2000
   14.1940   23.1340  -10.9480   C 0  0  0  0  0  0  0  0  0  0  0  0
   13.7780   24.3090  -11.0680   O 0  0  0  0  0  0  0  0  0  0  0  0
   15.3590   23.0100  -10.4980   O 0  5  0  0  0  0  0  0  0  0  0  0
   13.3460   21.9520  -11.3250   C 0  0  0  0  0  0  0  0  0  0  0  0
  1  2  2  0  0  0  0
  1  3  1  0  0  0  0
  1  4  1  0  0  0  0
M  CHG  1   3  -1
M  END
>  <InstanceId>
4I7J_ACT_A_206

>  <ChemCompId>
ACT

>  <PdbId>
4I7J

>  <ChainId>
A

>  <ResidueNumber>
206

>  <InsertionCode>


>  <Model>
1

>  <AltIds>


>  <MissingHeavyAtoms>
0

>  <ObservedFormula>
C2 O2

>  <Name>
ACETATE ION

>  <SystematicName>
ethanoate

>  <Synonyms>


>  <Type>
NON-POLYMER

>  <Formula>
C2 H3 O2

>  <MolecularWeight>
59.044

>  <ModifiedDate>
2011-06-04

>  <Parent>


>  <OneLetterCode>


>  <SubcomponentList>


>  <AmbiguousFlag>
N

>  <InChI>
InChI=1S/C2H4O2/c1-2(3)4/h1H3,(H,3,4)/p-1

>  <InChIKey>
QTBSBXVTEAMEQO-UHFFFAOYSA-M

>  <SMILES>
CC(=O)[O-]

$$$$
4I7K_ACT_A_205
  RCSB PDB12061712583D
Coordinates from PDB:4I7K:A:205 Model:1 without hydrogens
  4  3  0  0  0  0            999 V2000
    7.9440   10.5110   22.2540   C 0  0  0  0  0  0  0  0  0  0  0  0
    8.1360   11.5650   22.8910   O 0  0  0  0  0  0  0  0  0  0  0  0
    8.9800    9.9580   21.8210   O 0  5  0  0  0  0  0  0  0  0  0  0
    6.5680    9.9490   22.0350   C 0  0  0  0  0  0  0  0  0  0  0  0
  1  2  2  0  0  0  0
  1  3  1  0  0  0  0
  1  4  1  0  0  0  0
M  CHG  1   3  -1
M  END
>  <InstanceId>
4I7K_ACT_A_205

>  <ChemCompId>
ACT

>  <PdbId>
4I7K

>  <ChainId>
A

>  <ResidueNumber>
205

>  <InsertionCode>


>  <Model>
1

>  <AltIds>


>  <MissingHeavyAtoms>
0

>  <ObservedFormula>
C2 O2

>  <Name>
ACETATE ION

>  <SystematicName>
ethanoate

>  <Synonyms>


>  <Type>
NON-POLYMER

>  <Formula>
C2 H3 O2

>  <MolecularWeight>
59.044

>  <ModifiedDate>
2011-06-04

>  <Parent>


>  <OneLetterCode>


>  <SubcomponentList>


>  <AmbiguousFlag>
N

>  <InChI>
InChI=1S/C2H4O2/c1-2(3)4/h1H3,(H,3,4)/p-1

>  <InChIKey>
QTBSBXVTEAMEQO-UHFFFAOYSA-M

>  <SMILES>
CC(=O)[O-]

$$$$
4I7L_ACT_A_206
  RCSB PDB12061712583D
Coordinates from PDB:4I7L:A:206 Model:1 without hydrogens
  4  3  0  0  0  0            999 V2000
   14.1490   23.3340  -10.8650   C 0  0  0  0  0  0  0  0  0  0  0  0
   15.3650   23.6520  -10.8050   O 0  0  0  0  0  0  0  0  0  0  0  0
   13.8760   22.2560  -11.4390   O 0  5  0  0  0  0  0  0  0  0  0  0
   13.0590   24.1840  -10.2900   C 0  0  0  0  0  0  0  0  0  0  0  0
  1  2  2  0  0  0  0
  1  3  1  0  0  0  0
  1  4  1  0  0  0  0
M  CHG  1   3  -1
M  END
>  <InstanceId>
4I7L_ACT_A_206

>  <ChemCompId>
ACT

>  <PdbId>
4I7L

>  <ChainId>
A

>  <ResidueNumber>
206

>  <InsertionCode>


>  <Model>
1

>  <AltIds>


>  <MissingHeavyAtoms>
0

>  <ObservedFormula>
C2 O2

>  <Name>
ACETATE ION

>  <SystematicName>
ethanoate

>  <Synonyms>


>  <Type>
NON-POLYMER

>  <Formula>
C2 H3 O2

>  <MolecularWeight>
59.044

>  <ModifiedDate>
2011-06-04

>  <Parent>


>  <OneLetterCode>


>  <SubcomponentList>


>  <AmbiguousFlag>
N

>  <InChI>
InChI=1S/C2H4O2/c1-2(3)4/h1H3,(H,3,4)/p-1

>  <InChIKey>
QTBSBXVTEAMEQO-UHFFFAOYSA-M

>  <SMILES>
CC(=O)[O-]

$$$$
4I7M_ACT_B_203
  RCSB PDB12061712583D
Coordinates from PDB:4I7M:B:203 Model:1 without hydrogens
  4  3  0  0  0  0            999 V2000
   13.6850   21.6540  -10.8970   C 0  0  0  0  0  0  0  0  0  0  0  0
   12.8790   20.7400  -11.2060   O 0  0  0  0  0  0  0  0  0  0  0  0
   14.9260   21.4000  -10.8670   O 0  5  0  0  0  0  0  0  0  0  0  0
   13.1350   23.0120  -10.6130   C 0  0  0  0  0  0  0  0  0  0  0  0
  1  2  2  0  0  0  0
  1  3  1  0  0  0  0
  1  4  1  0  0  0  0
M  CHG  1   3  -1
M  END
>  <InstanceId>
4I7M_ACT_B_203

>  <ChemCompId>
ACT

>  <PdbId>
4I7M

>  <ChainId>
B

>  <ResidueNumber>
203

>  <InsertionCode>


>  <Model>
1

>  <AltIds>


>  <MissingHeavyAtoms>
0

>  <ObservedFormula>
C2 O2

>  <Name>
ACETATE ION

>  <SystematicName>
ethanoate

>  <Synonyms>


>  <Type>
NON-POLYMER

>  <Formula>
C2 H3 O2

>  <MolecularWeight>
59.044

>  <ModifiedDate>
2011-06-04

>  <Parent>


>  <OneLetterCode>


>  <SubcomponentList>


>  <AmbiguousFlag>
N

>  <InChI>
InChI=1S/C2H4O2/c1-2(3)4/h1H3,(H,3,4)/p-1

>  <InChIKey>
QTBSBXVTEAMEQO-UHFFFAOYSA-M

>  <SMILES>
CC(=O)[O-]

$$$$
4I7N_ACT_B_201
  RCSB PDB12061712583D
Coordinates from PDB:4I7N:B:201 Model:1 without hydrogens
  4  3  0  0  0  0            999 V2000
   14.0350   21.9350  -10.8320   C 0  0  0  0  0  0  0  0  0  0  0  0
   13.7130   20.8740  -11.4130   O 0  0  0  0  0  0  0  0  0  0  0  0
   15.2640   22.1350  -10.6790   O 0  5  0  0  0  0  0  0  0  0  0  0
   12.9830   22.8880  -10.3560   C 0  0  0  0  0  0  0  0  0  0  0  0
  1  2  2  0  0  0  0
  1  3  1  0  0  0  0
  1  4  1  0  0  0  0
M  CHG  1   3  -1
M  END
>  <InstanceId>
4I7N_ACT_B_201

>  <ChemCompId>
ACT

>  <PdbId>
4I7N

>  <ChainId>
B

>  <ResidueNumber>
201

>  <InsertionCode>


>  <Model>
1

>  <AltIds>


>  <MissingHeavyAtoms>
0

>  <ObservedFormula>
C2 O2

>  <Name>
ACETATE ION

>  <SystematicName>
ethanoate

>  <Synonyms>


>  <Type>
NON-POLYMER

>  <Formula>
C2 H3 O2

>  <MolecularWeight>
59.044

>  <ModifiedDate>
2011-06-04

>  <Parent>


>  <OneLetterCode>


>  <SubcomponentList>


>  <AmbiguousFlag>
N

>  <InChI>
InChI=1S/C2H4O2/c1-2(3)4/h1H3,(H,3,4)/p-1

>  <InChIKey>
QTBSBXVTEAMEQO-UHFFFAOYSA-M

>  <SMILES>
CC(=O)[O-]

$$$$
4I7O_ACT_B_201
  RCSB PDB12061712583D
Coordinates from PDB:4I7O:B:201 Model:1 without hydrogens
  4  3  0  0  0  0            999 V2000
   14.1520   21.8720  -10.9160   C 0  0  0  0  0  0  0  0  0  0  0  0
   15.3420   22.2670  -10.9680   O 0  0  0  0  0  0  0  0  0  0  0  0
   13.2690   22.5230  -10.3550   O 0  5  0  0  0  0  0  0  0  0  0  0
   13.7220   20.6070  -11.5290   C 0  0  0  0  0  0  0  0  0  0  0  0
  1  2  2  0  0  0  0
  1  3  1  0  0  0  0
  1  4  1  0  0  0  0
M  CHG  1   3  -1
M  END
>  <InstanceId>
4I7O_ACT_B_201

>  <ChemCompId>
ACT

>  <PdbId>
4I7O

>  <ChainId>
B

>  <ResidueNumber>
201

>  <InsertionCode>


>  <Model>
1

>  <AltIds>


>  <MissingHeavyAtoms>
0

>  <ObservedFormula>
C2 O2

>  <Name>
ACETATE ION

>  <SystematicName>
ethanoate

>  <Synonyms>


>  <Type>
NON-POLYMER

>  <Formula>
C2 H3 O2

>  <MolecularWeight>
59.044

>  <ModifiedDate>
2011-06-04

>  <Parent>


>  <OneLetterCode>


>  <SubcomponentList>


>  <AmbiguousFlag>
N

>  <InChI>
InChI=1S/C2H4O2/c1-2(3)4/h1H3,(H,3,4)/p-1

>  <InChIKey>
QTBSBXVTEAMEQO-UHFFFAOYSA-M

>  <SMILES>
CC(=O)[O-]

$$$$
4I7P_ACT_B_206
  RCSB PDB12061712583D
Coordinates from PDB:4I7P:B:206 Model:1 without hydrogens
  4  3  0  0  0  0            999 V2000
   34.4440   10.0020  -25.3590   C 0  0  0  0  0  0  0  0  0  0  0  0
   33.6230    9.1090  -25.0920   O 0  0  0  0  0  0  0  0  0  0  0  0
   34.0020   10.9810  -26.0000   O 0  5  0  0  0  0  0  0  0  0  0  0
   35.8680    9.9060  -24.8960   C 0  0  0  0  0  0  0  0  0  0  0  0
  1  2  2  0  0  0  0
  1  3  1  0  0  0  0
  1  4  1  0  0  0  0
M  CHG  1   3  -1
M  END
>  <InstanceId>
4I7P_ACT_B_206

>  <ChemCompId>
ACT

>  <PdbId>
4I7P

>  <ChainId>
B

>  <ResidueNumber>
206

>  <InsertionCode>


>  <Model>
1

>  <AltIds>


>  <MissingHeavyAtoms>
0

>  <ObservedFormula>
C2 O2

>  <Name>
ACETATE ION

>  <SystematicName>
ethanoate

>  <Synonyms>


>  <Type>
NON-POLYMER

>  <Formula>
C2 H3 O2

>  <MolecularWeight>
59.044

>  <ModifiedDate>
2011-06-04

>  <Parent>


>  <OneLetterCode>


>  <SubcomponentList>


>  <AmbiguousFlag>
N

>  <InChI>
InChI=1S/C2H4O2/c1-2(3)4/h1H3,(H,3,4)/p-1

>  <InChIKey>
QTBSBXVTEAMEQO-UHFFFAOYSA-M

>  <SMILES>
CC(=O)[O-]

$$$$
4I7Q_ACT_A_209
  RCSB PDB12061712583D
Coordinates from PDB:4I7Q:A:209 Model:1 without hydrogens
  4  3  0  0  0  0            999 V2000
   14.1650   22.1570  -10.7860   C 0  0  0  0  0  0  0  0  0  0  0  0
   13.5190   21.1710  -11.2080   O 0  0  0  0  0  0  0  0  0  0  0  0
   15.3730   21.9570  -10.5250   O 0  5  0  0  0  0  0  0  0  0  0  0
   13.5210   23.4990  -10.6080   C 0  0  0  0  0  0  0  0  0  0  0  0
  1  2  2  0  0  0  0
  1  3  1  0  0  0  0
  1  4  1  0  0  0  0
M  CHG  1   3  -1
M  END
>  <InstanceId>
4I7Q_ACT_A_209

>  <ChemCompId>
ACT

>  <PdbId>
4I7Q

>  <ChainId>
A

>  <ResidueNumber>
209

>  <InsertionCode>


>  <Model>
1

>  <AltIds>


>  <MissingHeavyAtoms>
0

>  <ObservedFormula>
C2 O2

>  <Name>
ACETATE ION

>  <SystematicName>
ethanoate

>  <Synonyms>


>  <Type>
NON-POLYMER

>  <Formula>
C2 H3 O2

>  <MolecularWeight>
59.044

>  <ModifiedDate>
2011-06-04

>  <Parent>


>  <OneLetterCode>


>  <SubcomponentList>


>  <AmbiguousFlag>
N

>  <InChI>
InChI=1S/C2H4O2/c1-2(3)4/h1H3,(H,3,4)/p-1

>  <InChIKey>
QTBSBXVTEAMEQO-UHFFFAOYSA-M

>  <SMILES>
CC(=O)[O-]

$$$$
4I7R_ACT_A_208
  RCSB PDB12061712583D
Coordinates from PDB:4I7R:A:208 Model:1 without hydrogens
  4  3  0  0  0  0            999 V2000
   14.3510   21.4970  -11.1750   C 0  0  0  0  0  0  0  0  0  0  0  0
   13.1350   21.7850  -11.0210   O 0  0  0  0  0  0  0  0  0  0  0  0
   15.2140   22.0220  -10.4640   O 0  5  0  0  0  0  0  0  0  0  0  0
   14.8220   20.4630  -12.1420   C 0  0  0  0  0  0  0  0  0  0  0  0
  1  2  2  0  0  0  0
  1  3  1  0  0  0  0
  1  4  1  0  0  0  0
M  CHG  1   3  -1
M  END
>  <InstanceId>
4I7R_ACT_A_208

>  <ChemCompId>
ACT

>  <PdbId>
4I7R

>  <ChainId>
A

>  <ResidueNumber>
208

>  <InsertionCode>


>  <Model>
1

>  <AltIds>


>  <MissingHeavyAtoms>
0

>  <ObservedFormula>
C2 O2

>  <Name>
ACETATE ION

>  <SystematicName>
ethanoate

>  <Synonyms>


>  <Type>
NON-POLYMER

>  <Formula>
C2 H3 O2

>  <MolecularWeight>
59.044

>  <ModifiedDate>
2011-06-04

>  <Parent>


>  <OneLetterCode>


>  <SubcomponentList>


>  <AmbiguousFlag>
N

>  <InChI>
InChI=1S/C2H4O2/c1-2(3)4/h1H3,(H,3,4)/p-1

>  <InChIKey>
QTBSBXVTEAMEQO-UHFFFAOYSA-M

>  <SMILES>
CC(=O)[O-]

$$$$
4I7S_ACT_A_207
  RCSB PDB12061712583D
Coordinates from PDB:4I7S:A:207 Model:1 without hydrogens
  4  3  0  0  0  0            999 V2000
    8.0820    9.4760   22.1330   C 0  0  0  0  0  0  0  0  0  0  0  0
    8.3120   10.5250   22.7570   O 0  0  0  0  0  0  0  0  0  0  0  0
    9.0960    8.9040   21.6470   O 0  5  0  0  0  0  0  0  0  0  0  0
    6.6830    8.9520   21.9790   C 0  0  0  0  0  0  0  0  0  0  0  0
  1  2  2  0  0  0  0
  1  3  1  0  0  0  0
  1  4  1  0  0  0  0
M  CHG  1   3  -1
M  END
>  <InstanceId>
4I7S_ACT_A_207

>  <ChemCompId>
ACT

>  <PdbId>
4I7S

>  <ChainId>
A

>  <ResidueNumber>
207

>  <InsertionCode>


>  <Model>
1

>  <AltIds>


>  <MissingHeavyAtoms>
0

>  <ObservedFormula>
C2 O2

>  <Name>
ACETATE ION

>  <SystematicName>
ethanoate

>  <Synonyms>


>  <Type>
NON-POLYMER

>  <Formula>
C2 H3 O2

>  <MolecularWeight>
59.044

>  <ModifiedDate>
2011-06-04

>  <Parent>


>  <OneLetterCode>


>  <SubcomponentList>


>  <AmbiguousFlag>
N

>  <InChI>
InChI=1S/C2H4O2/c1-2(3)4/h1H3,(H,3,4)/p-1

>  <InChIKey>
QTBSBXVTEAMEQO-UHFFFAOYSA-M

>  <SMILES>
CC(=O)[O-]

$$$$
4I7T_ACT_A_206
  RCSB PDB12061712583D
Coordinates from PDB:4I7T:A:206 Model:1 without hydrogens
  4  3  0  0  0  0            999 V2000
    8.2420    9.8720   22.3560   C 0  0  0  0  0  0  0  0  0  0  0  0
    7.1140    9.3660   22.5600   O 0  0  0  0  0  0  0  0  0  0  0  0
    8.3730   11.0400   22.7240   O 0  5  0  0  0  0  0  0  0  0  0  0
    9.3600    9.1440   21.6920   C 0  0  0  0  0  0  0  0  0  0  0  0
  1  2  2  0  0  0  0
  1  3  1  0  0  0  0
  1  4  1  0  0  0  0
M  CHG  1   3  -1
M  END
>  <InstanceId>
4I7T_ACT_A_206

>  <ChemCompId>
ACT

>  <PdbId>
4I7T

>  <ChainId>
A

>  <ResidueNumber>
206

>  <InsertionCode>


>  <Model>
1

>  <AltIds>


>  <MissingHeavyAtoms>
0

>  <ObservedFormula>
C2 O2

>  <Name>
ACETATE ION

>  <SystematicName>
ethanoate

>  <Synonyms>


>  <Type>
NON-POLYMER

>  <Formula>
C2 H3 O2

>  <MolecularWeight>
59.044

>  <ModifiedDate>
2011-06-04

>  <Parent>


>  <OneLetterCode>


>  <SubcomponentList>


>  <AmbiguousFlag>
N

>  <InChI>
InChI=1S/C2H4O2/c1-2(3)4/h1H3,(H,3,4)/p-1

>  <InChIKey>
QTBSBXVTEAMEQO-UHFFFAOYSA-M

>  <SMILES>
CC(=O)[O-]

$$$$
3GUN_ANL_A_501
  RCSB PDB12061708473D
Coordinates from PDB:3GUN:A:501 Model:1 without hydrogens
  7  7  0  0  0  0            999 V2000
    8.2090   -0.2970   -2.4220   C 0  0  0  0  0  0  0  0  0  0  0  0
    7.8900    0.8180   -1.6440   C 0  0  0  0  0  0  0  0  0  0  0  0
    8.9220    1.6750   -1.2930   C 0  0  0  0  0  0  0  0  0  0  0  0
   10.2380    1.4580   -1.6890   C 0  0  0  0  0  0  0  0  0  0  0  0
   10.5700    0.3140   -2.4220   C 0  0  0  0  0  0  0  0  0  0  0  0
    9.5380   -0.5700   -2.8100   C 0  0  0  0  0  0  0  0  0  0  0  0
    7.1720   -1.1910   -2.6840   N 0  0  0  0  0  0  0  0  0  0  0  0
  1  2  2  0  0  0  0
  1  6  1  0  0  0  0
  1  7  1  0  0  0  0
  2  3  1  0  0  0  0
  3  4  2  0  0  0  0
  4  5  1  0  0  0  0
  5  6  2  0  0  0  0
M  END
>  <InstanceId>
3GUN_ANL_A_501

>  <ChemCompId>
ANL

>  <PdbId>
3GUN

>  <ChainId>
A

>  <ResidueNumber>
501

>  <InsertionCode>


>  <Model>
1

>  <AltIds>


>  <MissingHeavyAtoms>
0

>  <ObservedFormula>
C6 N

>  <Name>
ANILINE

>  <SystematicName>
aniline

>  <Synonyms>


>  <Type>
NON-POLYMER

>  <Formula>
C6 H7 N

>  <MolecularWeight>
93.126

>  <ModifiedDate>
2011-06-04

>  <Parent>


>  <OneLetterCode>


>  <SubcomponentList>


>  <AmbiguousFlag>
N

>  <InChI>
InChI=1S/C6H7N/c7-6-4-2-1-3-5-6/h1-5H,7H2

>  <InChIKey>
PAYRUJLWNCNPSJ-UHFFFAOYSA-N

>  <SMILES>
c1ccc(cc1)N

$$$$
1C6C_AR_A_500
  RCSB PDB12061702093D
Coordinates from PDB:1C6C:A:500 Model:1 without hydrogens
  1  0  0  0  0  0            999 V2000
   25.9840    5.3690    4.6890  Ar 0  0  0  0  0  0  0  0  0  0  0  0
M  END
>  <InstanceId>
1C6C_AR_A_500

>  <ChemCompId>
AR

>  <PdbId>
1C6C

>  <ChainId>
A

>  <ResidueNumber>
500

>  <InsertionCode>


>  <Model>
1

>  <AltIds>


>  <MissingHeavyAtoms>
0

>  <ObservedFormula>
Ar

>  <Name>
ARGON

>  <SystematicName>
argon

>  <Synonyms>


>  <Type>
NON-POLYMER

>  <Formula>
Ar

>  <MolecularWeight>
39.948

>  <ModifiedDate>
2011-06-04

>  <Parent>


>  <OneLetterCode>


>  <SubcomponentList>


>  <AmbiguousFlag>
N

>  <InChI>
InChI=1S/Ar

>  <InChIKey>
XKRFYHLGVUSROY-UHFFFAOYSA-N

>  <SMILES>
[Ar]

$$$$
1C6F_AR_A_500
  RCSB PDB12061702093D
Coordinates from PDB:1C6F:A:500 Model:1 without hydrogens
  1  0  0  0  0  0            999 V2000
   26.0040    5.2890    4.4780  Ar 0  0  0  0  0  0  0  0  0  0  0  0
M  END
>  <InstanceId>
1C6F_AR_A_500

>  <ChemCompId>
AR

>  <PdbId>
1C6F

>  <ChainId>
A

>  <ResidueNumber>
500

>  <InsertionCode>


>  <Model>
1

>  <AltIds>


>  <MissingHeavyAtoms>
0

>  <ObservedFormula>
Ar

>  <Name>
ARGON

>  <SystematicName>
argon

>  <Synonyms>


>  <Type>
NON-POLYMER

>  <Formula>
Ar

>  <MolecularWeight>
39.948

>  <ModifiedDate>
2011-06-04

>  <Parent>


>  <OneLetterCode>


>  <SubcomponentList>


>  <AmbiguousFlag>
N

>  <InChI>
InChI=1S/Ar

>  <InChIKey>
XKRFYHLGVUSROY-UHFFFAOYSA-N

>  <SMILES>
[Ar]

$$$$
1C6I_AR_A_500
  RCSB PDB12061702093D
Coordinates from PDB:1C6I:A:500 Model:1 without hydrogens
  1  0  0  0  0  0            999 V2000
   25.8950    5.6000    4.8190  Ar 0  0  0  0  0  0  0  0  0  0  0  0
M  END
>  <InstanceId>
1C6I_AR_A_500

>  <ChemCompId>
AR

>  <PdbId>
1C6I

>  <ChainId>
A

>  <ResidueNumber>
500

>  <InsertionCode>


>  <Model>
1

>  <AltIds>


>  <MissingHeavyAtoms>
0

>  <ObservedFormula>
Ar

>  <Name>
ARGON

>  <SystematicName>
argon

>  <Synonyms>


>  <Type>
NON-POLYMER

>  <Formula>
Ar

>  <MolecularWeight>
39.948

>  <ModifiedDate>
2011-06-04

>  <Parent>


>  <OneLetterCode>


>  <SubcomponentList>


>  <AmbiguousFlag>
N

>  <InChI>
InChI=1S/Ar

>  <InChIKey>
XKRFYHLGVUSROY-UHFFFAOYSA-N

>  <SMILES>
[Ar]

$$$$
3DKE_AZI_X_401
  RCSB PDB12061708203D
Coordinates from PDB:3DKE:X:401 Model:1 without hydrogens
  3  2  0  0  0  0            999 V2000
   45.4310   26.4940   11.4750   N 0  5  0  0  0  0  0  0  0  0  0  0
   46.5030   26.0680   11.5600   N 0  3  0  0  0  0  0  0  0  0  0  0
   47.5750   25.6940   11.6440   N 0  5  0  0  0  0  0  0  0  0  0  0
  1  2  2  0  0  0  0
  2  3  2  0  0  0  0
M  CHG  3   1  -1   2   1   3  -1
M  END
>  <InstanceId>
3DKE_AZI_X_401

>  <ChemCompId>
AZI

>  <PdbId>
3DKE

>  <ChainId>
X

>  <ResidueNumber>
401

>  <InsertionCode>


>  <Model>
1

>  <AltIds>


>  <MissingHeavyAtoms>
0

>  <ObservedFormula>
N3

>  <Name>
AZIDE ION

>  <SystematicName>
azide

>  <Synonyms>


>  <Type>
NON-POLYMER

>  <Formula>
N3

>  <MolecularWeight>
42.02

>  <ModifiedDate>
2011-06-04

>  <Parent>


>  <OneLetterCode>


>  <SubcomponentList>


>  <AmbiguousFlag>
N

>  <InChI>
InChI=1S/N3/c1-3-2/q-1

>  <InChIKey>
IVRMZWNICZWHMI-UHFFFAOYSA-N

>  <SMILES>
[N-]=[N+]=[N-]

$$$$
3HH3_B20_A_169
  RCSB PDB12061708533D
Coordinates from PDB:3HH3:A:169 Model:1 without hydrogens
  6  6  0  0  0  0            999 V2000
   27.5590    6.4850    2.8550   C 0  0  0  0  0  0  0  0  0  0  0  0
   26.8020    5.3480    2.8600   C 0  0  0  0  0  0  0  0  0  0  0  0
   25.9460    5.0100    3.9300   C 0  0  0  0  0  0  0  0  0  0  0  0
   25.8430    5.8210    5.0160   C 0  0  0  0  0  0  0  0  0  0  0  0
   26.6850    7.0870    5.0420   B 0  0  0  0  0  0  0  0  0  0  0  0
   27.5520    7.3780    3.9130   N 0  0  0  0  0  0  0  0  0  0  0  0
  1  2  2  0  0  0  0
  1  6  1  0  0  0  0
  2  3  1  0  0  0  0
  3  4  2  0  0  0  0
  4  5  1  0  0  0  0
  5  6  1  0  0  0  0
M  END
>  <InstanceId>
3HH3_B20_A_169

>  <ChemCompId>
B20

>  <PdbId>
3HH3

>  <ChainId>
A

>  <ResidueNumber>
169

>  <InsertionCode>


>  <Model>
1

>  <AltIds>


>  <MissingHeavyAtoms>
0

>  <ObservedFormula>
C4 N B

>  <Name>
1,2-dihydro-1,2-azaborinine

>  <SystematicName>
1,2-dihydro-1,2-azaborinine

>  <Synonyms>
1,2-DIHYDRO-1,2-AZABORINE

>  <Type>
NON-POLYMER

>  <Formula>
C4 H6 B N

>  <MolecularWeight>
78.908

>  <ModifiedDate>
2011-06-04

>  <Parent>


>  <OneLetterCode>


>  <SubcomponentList>


>  <AmbiguousFlag>
N

>  <InChI>
InChI=1S/C4H6BN/c1-2-4-6-5-3-1/h1-6H

>  <InChIKey>
OGZZEGWWYQKMSO-UHFFFAOYSA-N

>  <SMILES>
B1C=CC=CN1

$$$$
5JWU_B20_A_201
  RCSB PDB12061718313D
Coordinates from PDB:5JWU:A:201 Model:1 without hydrogens
  6  6  0  0  0  0            999 V2000
  -38.6410   25.9100  -13.1480   C 0  0  0  0  0  0  0  0  0  0  0  0
  -38.7000   26.9400  -12.2540   C 0  0  0  0  0  0  0  0  0  0  0  0
  -38.0580   26.8250  -10.9920   C 0  0  0  0  0  0  0  0  0  0  0  0
  -37.3760   25.7010  -10.6220   C 0  0  0  0  0  0  0  0  0  0  0  0
  -37.3180   24.5690  -11.5980   B 0  0  0  0  0  0  0  0  0  0  0  0
  -37.9710   24.7470  -12.8430   N 0  0  0  0  0  0  0  0  0  0  0  0
  1  2  2  0  0  0  0
  1  6  1  0  0  0  0
  2  3  1  0  0  0  0
  3  4  2  0  0  0  0
  4  5  1  0  0  0  0
  5  6  1  0  0  0  0
M  END
>  <InstanceId>
5JWU_B20_A_201

>  <ChemCompId>
B20

>  <PdbId>
5JWU

>  <ChainId>
A

>  <ResidueNumber>
201

>  <InsertionCode>


>  <Model>
1

>  <AltIds>


>  <MissingHeavyAtoms>
0

>  <ObservedFormula>
C4 N B

>  <Name>
1,2-dihydro-1,2-azaborinine

>  <SystematicName>
1,2-dihydro-1,2-azaborinine

>  <Synonyms>
1,2-DIHYDRO-1,2-AZABORINE

>  <Type>
NON-POLYMER

>  <Formula>
C4 H6 B N

>  <MolecularWeight>
78.908

>  <ModifiedDate>
2011-06-04

>  <Parent>


>  <OneLetterCode>


>  <SubcomponentList>


>  <AmbiguousFlag>
N

>  <InChI>
InChI=1S/C4H6BN/c1-2-4-6-5-3-1/h1-6H

>  <InChIKey>
OGZZEGWWYQKMSO-UHFFFAOYSA-N

>  <SMILES>
B1C=CC=CN1

$$$$
3HH5_B24_A_168
  RCSB PDB12061708533D
Coordinates from PDB:3HH5:A:168 Model:1 without hydrogens
  8  8  0  0  0  0            999 V2000
   27.3120    8.4750    1.5240   C 0  0  0  0  0  0  0  0  0  0  0  0
   28.0280    7.3330    2.2170   C 0  0  0  0  0  0  0  0  0  0  0  0
   27.2140    6.8060    3.3190   N 0  0  0  0  0  0  0  0  0  0  0  0
   27.1410    7.5580    4.6100   B 0  0  0  0  0  0  0  0  0  0  0  0
   26.3020    7.0060    5.7110   C 0  0  0  0  0  0  0  0  0  0  0  0
   25.6200    5.8160    5.4770   C 0  0  0  0  0  0  0  0  0  0  0  0
   25.7340    5.1690    4.2440   C 0  0  0  0  0  0  0  0  0  0  0  0
   26.5200    5.6610    3.1940   C 0  0  0  0  0  0  0  0  0  0  0  0
  1  2  1  0  0  0  0
  2  3  1  0  0  0  0
  3  4  1  0  0  0  0
  3  8  1  0  0  0  0
  4  5  1  0  0  0  0
  5  6  2  0  0  0  0
  6  7  1  0  0  0  0
  7  8  2  0  0  0  0
M  END
>  <InstanceId>
3HH5_B24_A_168

>  <ChemCompId>
B24

>  <PdbId>
3HH5

>  <ChainId>
A

>  <ResidueNumber>
168

>  <InsertionCode>


>  <Model>
1

>  <AltIds>


>  <MissingHeavyAtoms>
0

>  <ObservedFormula>
C6 N B

>  <Name>
1-ethyl-1,2-dihydro-1,2-azaborinine

>  <SystematicName>
1-ethyl-2H-1,2-azaborinine

>  <Synonyms>
1-ETHYL-2-HYDRO-1,2-AZABORINE

>  <Type>
NON-POLYMER

>  <Formula>
C6 H10 B N

>  <MolecularWeight>
106.961

>  <ModifiedDate>
2011-06-04

>  <Parent>


>  <OneLetterCode>


>  <SubcomponentList>


>  <AmbiguousFlag>
N

>  <InChI>
InChI=1S/C6H10BN/c1-2-8-6-4-3-5-7-8/h3-7H,2H2,1H3

>  <InChIKey>
CXNLOBXKEIGPFX-UHFFFAOYSA-N

>  <SMILES>
B1C=CC=CN1CC

$$$$
3DN2_BBF_A_900
  RCSB PDB12061708203D
Coordinates from PDB:3DN2:A:900 Model:1 without hydrogens
 12 12  0  0  0  0            999 V2000
   27.5380    5.5200    2.3310   F 0  0  0  0  0  0  0  0  0  0  0  0
   27.0150    6.0700    3.4410   C 0  0  0  0  0  0  0  0  0  0  0  0
   27.4430    7.3180    3.8670   C 0  0  0  0  0  0  0  0  0  0  0  0
   28.7570    8.2620    2.9050  Br 0  0  0  0  0  0  0  0  0  0  0  0
   26.0490    5.3910    4.1700   C 0  0  0  0  0  0  0  0  0  0  0  0
   25.6310    4.1780    3.7710   F 0  0  0  0  0  0  0  0  0  0  0  0
   25.5200    5.9640    5.3170   C 0  0  0  0  0  0  0  0  0  0  0  0
   24.5840    5.3090    6.0210   F 0  0  0  0  0  0  0  0  0  0  0  0
   25.9540    7.2140    5.7340   C 0  0  0  0  0  0  0  0  0  0  0  0
   25.4500    7.7770    6.8420   F 0  0  0  0  0  0  0  0  0  0  0  0
   26.9160    7.8920    5.0090   C 0  0  0  0  0  0  0  0  0  0  0  0
   27.3380    9.1070    5.4050   F 0  0  0  0  0  0  0  0  0  0  0  0
  1  2  1  0  0  0  0
  2  3  2  0  0  0  0
  2  5  1  0  0  0  0
  3  4  1  0  0  0  0
  3 11  1  0  0  0  0
  5  6  1  0  0  0  0
  5  7  2  0  0  0  0
  7  8  1  0  0  0  0
  7  9  1  0  0  0  0
  9 10  1  0  0  0  0
  9 11  2  0  0  0  0
 11 12  1  0  0  0  0
M  END
>  <InstanceId>
3DN2_BBF_A_900

>  <ChemCompId>
BBF

>  <PdbId>
3DN2

>  <ChainId>
A

>  <ResidueNumber>
900

>  <InsertionCode>


>  <Model>
1

>  <AltIds>


>  <MissingHeavyAtoms>
0

>  <ObservedFormula>
C6 Br F5

>  <Name>
1-bromo-2,3,4,5,6-pentafluorobenzene

>  <SystematicName>
1-bromo-2,3,4,5,6-pentafluoro-benzene

>  <Synonyms>


>  <Type>
NON-POLYMER

>  <Formula>
C6 Br F5

>  <MolecularWeight>
246.96

>  <ModifiedDate>
2011-06-04

>  <Parent>


>  <OneLetterCode>


>  <SubcomponentList>


>  <AmbiguousFlag>
N

>  <InChI>
InChI=1S/C6BrF5/c7-1-2(8)4(10)6(12)5(11)3(1)9

>  <InChIKey>
XEKTVXADUPBFOA-UHFFFAOYSA-N

>  <SMILES>
c1(c(c(c(c(c1F)F)Br)F)F)F

$$$$
3DN1_BCF_A_900
  RCSB PDB12061708203D
Coordinates from PDB:3DN1:A:900 Model:1 without hydrogens
 12 12  0  0  0  0            999 V2000
   27.7750    7.5980    1.1130   F 0  0  0  0  0  0  0  0  0  0  0  0
   27.2620    7.3770    2.3340   C 0  0  0  0  0  0  0  0  0  0  0  0
   27.0120    8.4550    3.1660   C 0  0  0  0  0  0  0  0  0  0  0  0
   27.3830   10.1100    2.5830  Cl 0  0  0  0  0  0  0  0  0  0  0  0
   26.9770    6.0880    2.7630   C 0  0  0  0  0  0  0  0  0  0  0  0
   27.2160    5.0370    1.9600   F 0  0  0  0  0  0  0  0  0  0  0  0
   26.4400    5.8830    4.0260   C 0  0  0  0  0  0  0  0  0  0  0  0
   26.1640    4.6340    4.4430   F 0  0  0  0  0  0  0  0  0  0  0  0
   26.1930    6.9640    4.8610   C 0  0  0  0  0  0  0  0  0  0  0  0
   25.6780    6.7510    6.0850   F 0  0  0  0  0  0  0  0  0  0  0  0
   26.4780    8.2540    4.4300   C 0  0  0  0  0  0  0  0  0  0  0  0
   26.2420    9.3100    5.2290   F 0  0  0  0  0  0  0  0  0  0  0  0
  1  2  1  0  0  0  0
  2  3  2  0  0  0  0
  2  5  1  0  0  0  0
  3  4  1  0  0  0  0
  3 11  1  0  0  0  0
  5  6  1  0  0  0  0
  5  7  2  0  0  0  0
  7  8  1  0  0  0  0
  7  9  1  0  0  0  0
  9 10  1  0  0  0  0
  9 11  2  0  0  0  0
 11 12  1  0  0  0  0
M  END
>  <InstanceId>
3DN1_BCF_A_900

>  <ChemCompId>
BCF

>  <PdbId>
3DN1

>  <ChainId>
A

>  <ResidueNumber>
900

>  <InsertionCode>


>  <Model>
1

>  <AltIds>


>  <MissingHeavyAtoms>
0

>  <ObservedFormula>
C6 F5 Cl

>  <Name>
1-chloro-2,3,4,5,6-pentafluorobenzene

>  <SystematicName>
1-chloro-2,3,4,5,6-pentafluoro-benzene

>  <Synonyms>


>  <Type>
NON-POLYMER

>  <Formula>
C6 Cl F5

>  <MolecularWeight>
202.509

>  <ModifiedDate>
2011-06-04

>  <Parent>


>  <OneLetterCode>


>  <SubcomponentList>


>  <AmbiguousFlag>
N

>  <InChI>
InChI=1S/C6ClF5/c7-1-2(8)4(10)6(12)5(11)3(1)9

>  <InChIKey>
KGCDGLXSBHJAHZ-UHFFFAOYSA-N

>  <SMILES>
c1(c(c(c(c(c1F)F)Cl)F)F)F

$$$$
1C6C_BME_A_901
  RCSB PDB12061702093D
Coordinates from PDB:1C6C:A:901 Model:1 without hydrogens
  4  3  0  0  0  0            999 V2000
   32.5980    0.2450   16.9070   C 0  0  0  0  0  0  0  0  0  0  0  0
   32.9120   -1.0950   16.1720   C 0  0  0  0  0  0  0  0  0  0  0  0
   32.3870    0.0910   18.3120   O 0  0  0  0  0  0  0  0  0  0  0  0
   31.9770   -1.3990   14.6290   S 0  0  0  0  0  0  0  0  0  0  0  0
  1  2  1  0  0  0  0
  1  3  1  0  0  0  0
  2  4  1  0  0  0  0
M  END
>  <InstanceId>
1C6C_BME_A_901

>  <ChemCompId>
BME

>  <PdbId>
1C6C

>  <ChainId>
A

>  <ResidueNumber>
901

>  <InsertionCode>


>  <Model>
1

>  <AltIds>


>  <MissingHeavyAtoms>
0

>  <ObservedFormula>
C2 O S

>  <Name>
BETA-MERCAPTOETHANOL

>  <SystematicName>
2-sulfanylethanol

>  <Synonyms>


>  <Type>
NON-POLYMER

>  <Formula>
C2 H6 O S

>  <MolecularWeight>
78.133

>  <ModifiedDate>
2011-06-04

>  <Parent>


>  <OneLetterCode>


>  <SubcomponentList>


>  <AmbiguousFlag>
N

>  <InChI>
InChI=1S/C2H6OS/c3-1-2-4/h3-4H,1-2H2

>  <InChIKey>
DGVVWUTYPXICAM-UHFFFAOYSA-N

>  <SMILES>
C(CS)O

$$$$
1C6D_BME_A_901
  RCSB PDB12061702093D
Coordinates from PDB:1C6D:A:901 Model:1 without hydrogens
  4  3  0  0  0  0            999 V2000
   31.5450    0.2750   16.8240   C 0  0  0  0  0  0  0  0  0  0  0  0
   32.5940   -0.5440   16.0080   C 0  0  0  0  0  0  0  0  0  0  0  0
   31.8930    0.3600   18.2140   O 0  0  0  0  0  0  0  0  0  0  0  0
   31.9300   -1.4720   14.5750   S 0  0  0  0  0  0  0  0  0  0  0  0
  1  2  1  0  0  0  0
  1  3  1  0  0  0  0
  2  4  1  0  0  0  0
M  END
>  <InstanceId>
1C6D_BME_A_901

>  <ChemCompId>
BME

>  <PdbId>
1C6D

>  <ChainId>
A

>  <ResidueNumber>
901

>  <InsertionCode>


>  <Model>
1

>  <AltIds>


>  <MissingHeavyAtoms>
0

>  <ObservedFormula>
C2 O S

>  <Name>
BETA-MERCAPTOETHANOL

>  <SystematicName>
2-sulfanylethanol

>  <Synonyms>


>  <Type>
NON-POLYMER

>  <Formula>
C2 H6 O S

>  <MolecularWeight>
78.133

>  <ModifiedDate>
2011-06-04

>  <Parent>


>  <OneLetterCode>


>  <SubcomponentList>


>  <AmbiguousFlag>
N

>  <InChI>
InChI=1S/C2H6OS/c3-1-2-4/h3-4H,1-2H2

>  <InChIKey>
DGVVWUTYPXICAM-UHFFFAOYSA-N

>  <SMILES>
C(CS)O

$$$$
1C6E_BME_A_901
  RCSB PDB12061702093D
Coordinates from PDB:1C6E:A:901 Model:1 without hydrogens
  4  3  0  0  0  0            999 V2000
   32.6870    1.2890   16.5500   C 0  0  0  0  0  0  0  0  0  0  0  0
   32.9140   -0.1140   15.8640   C 0  0  0  0  0  0  0  0  0  0  0  0
   31.4840    1.4160   17.3210   O 0  0  0  0  0  0  0  0  0  0  0  0
   32.1170   -0.5090   14.2480   S 0  0  0  0  0  0  0  0  0  0  0  0
  1  2  1  0  0  0  0
  1  3  1  0  0  0  0
  2  4  1  0  0  0  0
M  END
>  <InstanceId>
1C6E_BME_A_901

>  <ChemCompId>
BME

>  <PdbId>
1C6E

>  <ChainId>
A

>  <ResidueNumber>
901

>  <InsertionCode>


>  <Model>
1

>  <AltIds>


>  <MissingHeavyAtoms>
0

>  <ObservedFormula>
C2 O S

>  <Name>
BETA-MERCAPTOETHANOL

>  <SystematicName>
2-sulfanylethanol

>  <Synonyms>


>  <Type>
NON-POLYMER

>  <Formula>
C2 H6 O S

>  <MolecularWeight>
78.133

>  <ModifiedDate>
2011-06-04

>  <Parent>


>  <OneLetterCode>


>  <SubcomponentList>


>  <AmbiguousFlag>
N

>  <InChI>
InChI=1S/C2H6OS/c3-1-2-4/h3-4H,1-2H2

>  <InChIKey>
DGVVWUTYPXICAM-UHFFFAOYSA-N

>  <SMILES>
C(CS)O

$$$$
1C6F_BME_A_901
  RCSB PDB12061702093D
Coordinates from PDB:1C6F:A:901 Model:1 without hydrogens
  4  3  0  0  0  0            999 V2000
   33.0150   -0.2350   16.7090   C 0  0  0  0  0  0  0  0  0  0  0  0
   32.3700   -1.5030   16.0800   C 0  0  0  0  0  0  0  0  0  0  0  0
   32.4650    0.0590   17.9980   O 0  0  0  0  0  0  0  0  0  0  0  0
   31.6440   -1.3200   14.4370   S 0  0  0  0  0  0  0  0  0  0  0  0
  1  2  1  0  0  0  0
  1  3  1  0  0  0  0
  2  4  1  0  0  0  0
M  END
>  <InstanceId>
1C6F_BME_A_901

>  <ChemCompId>
BME

>  <PdbId>
1C6F

>  <ChainId>
A

>  <ResidueNumber>
901

>  <InsertionCode>


>  <Model>
1

>  <AltIds>


>  <MissingHeavyAtoms>
0

>  <ObservedFormula>
C2 O S

>  <Name>
BETA-MERCAPTOETHANOL

>  <SystematicName>
2-sulfanylethanol

>  <Synonyms>


>  <Type>
NON-POLYMER

>  <Formula>
C2 H6 O S

>  <MolecularWeight>
78.133

>  <ModifiedDate>
2011-06-04

>  <Parent>


>  <OneLetterCode>


>  <SubcomponentList>


>  <AmbiguousFlag>
N

>  <InChI>
InChI=1S/C2H6OS/c3-1-2-4/h3-4H,1-2H2

>  <InChIKey>
DGVVWUTYPXICAM-UHFFFAOYSA-N

>  <SMILES>
C(CS)O

$$$$
1C6G_BME_A_901
  RCSB PDB12061702093D
Coordinates from PDB:1C6G:A:901 Model:1 without hydrogens
  4  3  0  0  0  0            999 V2000
   33.5570    0.9840   22.3070   C 0  0  0  0  0  0  0  0  0  0  0  0
   33.1970    0.3560   20.9370   C 0  0  0  0  0  0  0  0  0  0  0  0
   33.0320    2.2900   22.4170   O 0  0  0  0  0  0  0  0  0  0  0  0
   33.6520    1.2930   19.4530   S 0  0  0  0  0  0  0  0  0  0  0  0
  1  2  1  0  0  0  0
  1  3  1  0  0  0  0
  2  4  1  0  0  0  0
M  END
>  <InstanceId>
1C6G_BME_A_901

>  <ChemCompId>
BME

>  <PdbId>
1C6G

>  <ChainId>
A

>  <ResidueNumber>
901

>  <InsertionCode>


>  <Model>
1

>  <AltIds>


>  <MissingHeavyAtoms>
0

>  <ObservedFormula>
C2 O S

>  <Name>
BETA-MERCAPTOETHANOL

>  <SystematicName>
2-sulfanylethanol

>  <Synonyms>


>  <Type>
NON-POLYMER

>  <Formula>
C2 H6 O S

>  <MolecularWeight>
78.133

>  <ModifiedDate>
2011-06-04

>  <Parent>


>  <OneLetterCode>


>  <SubcomponentList>


>  <AmbiguousFlag>
N

>  <InChI>
InChI=1S/C2H6OS/c3-1-2-4/h3-4H,1-2H2

>  <InChIKey>
DGVVWUTYPXICAM-UHFFFAOYSA-N

>  <SMILES>
C(CS)O

$$$$
1C6H_BME_A_901
  RCSB PDB12061702093D
Coordinates from PDB:1C6H:A:901 Model:1 without hydrogens
  4  3  0  0  0  0            999 V2000
   27.2580    1.1310   19.0910   C 0  0  0  0  0  0  0  0  0  0  0  0
   27.7730    1.3830   17.6650   C 0  0  0  0  0  0  0  0  0  0  0  0
   28.3140    1.3250   20.0490   O 0  0  0  0  0  0  0  0  0  0  0  0
   26.4670    1.0330   16.4320   S 0  0  0  0  0  0  0  0  0  0  0  0
  1  2  1  0  0  0  0
  1  3  1  0  0  0  0
  2  4  1  0  0  0  0
M  END
>  <InstanceId>
1C6H_BME_A_901

>  <ChemCompId>
BME

>  <PdbId>
1C6H

>  <ChainId>
A

>  <ResidueNumber>
901

>  <InsertionCode>


>  <Model>
1

>  <AltIds>


>  <MissingHeavyAtoms>
0

>  <ObservedFormula>
C2 O S

>  <Name>
BETA-MERCAPTOETHANOL

>  <SystematicName>
2-sulfanylethanol

>  <Synonyms>


>  <Type>
NON-POLYMER

>  <Formula>
C2 H6 O S

>  <MolecularWeight>
78.133

>  <ModifiedDate>
2011-06-04

>  <Parent>


>  <OneLetterCode>


>  <SubcomponentList>


>  <AmbiguousFlag>
N

>  <InChI>
InChI=1S/C2H6OS/c3-1-2-4/h3-4H,1-2H2

>  <InChIKey>
DGVVWUTYPXICAM-UHFFFAOYSA-N

>  <SMILES>
C(CS)O

$$$$
1C6I_BME_A_901
  RCSB PDB12061702093D
Coordinates from PDB:1C6I:A:901 Model:1 without hydrogens
  4  3  0  0  0  0            999 V2000
   32.5060    0.9390   16.5480   C 0  0  0  0  0  0  0  0  0  0  0  0
   32.8100   -0.5250   16.0560   C 0  0  0  0  0  0  0  0  0  0  0  0
   31.2420    1.0630   17.2140   O 0  0  0  0  0  0  0  0  0  0  0  0
   31.9220   -1.0920   14.5560   S 0  0  0  0  0  0  0  0  0  0  0  0
  1  2  1  0  0  0  0
  1  3  1  0  0  0  0
  2  4  1  0  0  0  0
M  END
>  <InstanceId>
1C6I_BME_A_901

>  <ChemCompId>
BME

>  <PdbId>
1C6I

>  <ChainId>
A

>  <ResidueNumber>
901

>  <InsertionCode>


>  <Model>
1

>  <AltIds>


>  <MissingHeavyAtoms>
0

>  <ObservedFormula>
C2 O S

>  <Name>
BETA-MERCAPTOETHANOL

>  <SystematicName>
2-sulfanylethanol

>  <Synonyms>


>  <Type>
NON-POLYMER

>  <Formula>
C2 H6 O S

>  <MolecularWeight>
78.133

>  <ModifiedDate>
2011-06-04

>  <Parent>


>  <OneLetterCode>


>  <SubcomponentList>


>  <AmbiguousFlag>
N

>  <InChI>
InChI=1S/C2H6OS/c3-1-2-4/h3-4H,1-2H2

>  <InChIKey>
DGVVWUTYPXICAM-UHFFFAOYSA-N

>  <SMILES>
C(CS)O

$$$$
1C6J_BME_A_901
  RCSB PDB12061702093D
Coordinates from PDB:1C6J:A:901 Model:1 without hydrogens
  4  3  0  0  0  0            999 V2000
   32.6630    1.1220   16.3470   C 0  0  0  0  0  0  0  0  0  0  0  0
   32.9610   -0.3170   15.8200   C 0  0  0  0  0  0  0  0  0  0  0  0
   31.4860    1.2190   17.1790   O 0  0  0  0  0  0  0  0  0  0  0  0
   31.9210   -0.9210   14.4250   S 0  0  0  0  0  0  0  0  0  0  0  0
  1  2  1  0  0  0  0
  1  3  1  0  0  0  0
  2  4  1  0  0  0  0
M  END
>  <InstanceId>
1C6J_BME_A_901

>  <ChemCompId>
BME

>  <PdbId>
1C6J

>  <ChainId>
A

>  <ResidueNumber>
901

>  <InsertionCode>


>  <Model>
1

>  <AltIds>


>  <MissingHeavyAtoms>
0

>  <ObservedFormula>
C2 O S

>  <Name>
BETA-MERCAPTOETHANOL

>  <SystematicName>
2-sulfanylethanol

>  <Synonyms>


>  <Type>
NON-POLYMER

>  <Formula>
C2 H6 O S

>  <MolecularWeight>
78.133

>  <ModifiedDate>
2011-06-04

>  <Parent>


>  <OneLetterCode>


>  <SubcomponentList>


>  <AmbiguousFlag>
N

>  <InChI>
InChI=1S/C2H6OS/c3-1-2-4/h3-4H,1-2H2

>  <InChIKey>
DGVVWUTYPXICAM-UHFFFAOYSA-N

>  <SMILES>
C(CS)O

$$$$
1C6K_BME_A_901
  RCSB PDB12061702093D
Coordinates from PDB:1C6K:A:901 Model:1 without hydrogens
  4  3  0  0  0  0            999 V2000
   33.0100   -0.0130   16.8060   C 0  0  0  0  0  0  0  0  0  0  0  0
   32.5790   -1.3390   16.1140   C 0  0  0  0  0  0  0  0  0  0  0  0
   32.6360    0.0100   18.1870   O 0  0  0  0  0  0  0  0  0  0  0  0
   31.8690   -1.2240   14.4410   S 0  0  0  0  0  0  0  0  0  0  0  0
  1  2  1  0  0  0  0
  1  3  1  0  0  0  0
  2  4  1  0  0  0  0
M  END
>  <InstanceId>
1C6K_BME_A_901

>  <ChemCompId>
BME

>  <PdbId>
1C6K

>  <ChainId>
A

>  <ResidueNumber>
901

>  <InsertionCode>


>  <Model>
1

>  <AltIds>


>  <MissingHeavyAtoms>
0

>  <ObservedFormula>
C2 O S

>  <Name>
BETA-MERCAPTOETHANOL

>  <SystematicName>
2-sulfanylethanol

>  <Synonyms>


>  <Type>
NON-POLYMER

>  <Formula>
C2 H6 O S

>  <MolecularWeight>
78.133

>  <ModifiedDate>
2011-06-04

>  <Parent>


>  <OneLetterCode>


>  <SubcomponentList>


>  <AmbiguousFlag>
N

>  <InChI>
InChI=1S/C2H6OS/c3-1-2-4/h3-4H,1-2H2

>  <InChIKey>
DGVVWUTYPXICAM-UHFFFAOYSA-N

>  <SMILES>
C(CS)O

$$$$
1C6L_BME_A_901
  RCSB PDB12061702093D
Coordinates from PDB:1C6L:A:901 Model:1 without hydrogens
  4  3  0  0  0  0            999 V2000
   33.1650    0.3790   16.3320   C 0  0  0  0  0  0  0  0  0  0  0  0
   32.7030    0.4440   14.8620   C 0  0  0  0  0  0  0  0  0  0  0  0
   32.3530    1.2400   17.1290   O 0  0  0  0  0  0  0  0  0  0  0  0
   32.0610   -1.1070   14.1600   S 0  0  0  0  0  0  0  0  0  0  0  0
  1  2  1  0  0  0  0
  1  3  1  0  0  0  0
  2  4  1  0  0  0  0
M  END
>  <InstanceId>
1C6L_BME_A_901

>  <ChemCompId>
BME

>  <PdbId>
1C6L

>  <ChainId>
A

>  <ResidueNumber>
901

>  <InsertionCode>


>  <Model>
1

>  <AltIds>


>  <MissingHeavyAtoms>
0

>  <ObservedFormula>
C2 O S

>  <Name>
BETA-MERCAPTOETHANOL

>  <SystematicName>
2-sulfanylethanol

>  <Synonyms>


>  <Type>
NON-POLYMER

>  <Formula>
C2 H6 O S

>  <MolecularWeight>
78.133

>  <ModifiedDate>
2011-06-04

>  <Parent>


>  <OneLetterCode>


>  <SubcomponentList>


>  <AmbiguousFlag>
N

>  <InChI>
InChI=1S/C2H6OS/c3-1-2-4/h3-4H,1-2H2

>  <InChIKey>
DGVVWUTYPXICAM-UHFFFAOYSA-N

>  <SMILES>
C(CS)O

$$$$
1C6M_BME_A_901
  RCSB PDB12061702093D
Coordinates from PDB:1C6M:A:901 Model:1 without hydrogens
  4  3  0  0  0  0            999 V2000
   32.7860    0.1580   16.7250   C 0  0  0  0  0  0  0  0  0  0  0  0
   32.9830   -1.1730   15.9700   C 0  0  0  0  0  0  0  0  0  0  0  0
   32.6380   -0.0720   18.1340   O 0  0  0  0  0  0  0  0  0  0  0  0
   31.9750   -1.3620   14.4850   S 0  0  0  0  0  0  0  0  0  0  0  0
  1  2  1  0  0  0  0
  1  3  1  0  0  0  0
  2  4  1  0  0  0  0
M  END
>  <InstanceId>
1C6M_BME_A_901

>  <ChemCompId>
BME

>  <PdbId>
1C6M

>  <ChainId>
A

>  <ResidueNumber>
901

>  <InsertionCode>


>  <Model>
1

>  <AltIds>


>  <MissingHeavyAtoms>
0

>  <ObservedFormula>
C2 O S

>  <Name>
BETA-MERCAPTOETHANOL

>  <SystematicName>
2-sulfanylethanol

>  <Synonyms>


>  <Type>
NON-POLYMER

>  <Formula>
C2 H6 O S

>  <MolecularWeight>
78.133

>  <ModifiedDate>
2011-06-04

>  <Parent>


>  <OneLetterCode>


>  <SubcomponentList>


>  <AmbiguousFlag>
N

>  <InChI>
InChI=1S/C2H6OS/c3-1-2-4/h3-4H,1-2H2

>  <InChIKey>
DGVVWUTYPXICAM-UHFFFAOYSA-N

>  <SMILES>
C(CS)O

$$$$
1C6N_BME_A_901
  RCSB PDB12061702093D
Coordinates from PDB:1C6N:A:901 Model:1 without hydrogens
  4  3  0  0  0  0            999 V2000
   34.5940    1.0250   15.3600   C 0  0  0  0  0  0  0  0  0  0  0  0
   33.5410    0.4820   14.3340   C 0  0  0  0  0  0  0  0  0  0  0  0
   34.1030    2.1810   15.9830   O 0  0  0  0  0  0  0  0  0  0  0  0
   32.4390   -0.7860   14.8200   S 0  0  0  0  0  0  0  0  0  0  0  0
  1  2  1  0  0  0  0
  1  3  1  0  0  0  0
  2  4  1  0  0  0  0
M  END
>  <InstanceId>
1C6N_BME_A_901

>  <ChemCompId>
BME

>  <PdbId>
1C6N

>  <ChainId>
A

>  <ResidueNumber>
901

>  <InsertionCode>


>  <Model>
1

>  <AltIds>


>  <MissingHeavyAtoms>
0

>  <ObservedFormula>
C2 O S

>  <Name>
BETA-MERCAPTOETHANOL

>  <SystematicName>
2-sulfanylethanol

>  <Synonyms>


>  <Type>
NON-POLYMER

>  <Formula>
C2 H6 O S

>  <MolecularWeight>
78.133

>  <ModifiedDate>
2011-06-04

>  <Parent>


>  <OneLetterCode>


>  <SubcomponentList>


>  <AmbiguousFlag>
N

>  <InChI>
InChI=1S/C2H6OS/c3-1-2-4/h3-4H,1-2H2

>  <InChIKey>
DGVVWUTYPXICAM-UHFFFAOYSA-N

>  <SMILES>
C(CS)O

$$$$
1L83_BME_A_901
  RCSB PDB12061703093D
Coordinates from PDB:1L83:A:901 Model:1 without hydrogens
  4  3  0  0  0  0            999 V2000
   31.7620   -0.8710   15.0080   C 0  0  0  0  0  0  0  0  0  0  0  0
   31.8920   -0.6060   13.5240   C 0  0  0  0  0  0  0  0  0  0  0  0
   33.0900   -0.8170   15.5200   O 0  0  0  0  0  0  0  0  0  0  0  0
   33.3780   -1.4640   12.9740   S 0  0  0  0  0  0  0  0  0  0  0  0
  1  2  1  0  0  0  0
  1  3  1  0  0  0  0
  2  4  1  0  0  0  0
M  END
>  <InstanceId>
1L83_BME_A_901

>  <ChemCompId>
BME

>  <PdbId>
1L83

>  <ChainId>
A

>  <ResidueNumber>
901

>  <InsertionCode>


>  <Model>
1

>  <AltIds>


>  <MissingHeavyAtoms>
0

>  <ObservedFormula>
C2 O S

>  <Name>
BETA-MERCAPTOETHANOL

>  <SystematicName>
2-sulfanylethanol

>  <Synonyms>


>  <Type>
NON-POLYMER

>  <Formula>
C2 H6 O S

>  <MolecularWeight>
78.133

>  <ModifiedDate>
2011-06-04

>  <Parent>


>  <OneLetterCode>


>  <SubcomponentList>


>  <AmbiguousFlag>
N

>  <InChI>
InChI=1S/C2H6OS/c3-1-2-4/h3-4H,1-2H2

>  <InChIKey>
DGVVWUTYPXICAM-UHFFFAOYSA-N

>  <SMILES>
C(CS)O

$$$$
1L84_BME_A_901
  RCSB PDB12061703093D
Coordinates from PDB:1L84:A:901 Model:1 without hydrogens
  4  3  0  0  0  0            999 V2000
   32.0630   -1.2810   15.1870   C 0  0  0  0  0  0  0  0  0  0  0  0
   32.2280   -0.7290   13.7730   C 0  0  0  0  0  0  0  0  0  0  0  0
   33.3090   -1.0150   15.8450   O 0  0  0  0  0  0  0  0  0  0  0  0
   33.5380   -1.6640   12.9450   S 0  0  0  0  0  0  0  0  0  0  0  0
  1  2  1  0  0  0  0
  1  3  1  0  0  0  0
  2  4  1  0  0  0  0
M  END
>  <InstanceId>
1L84_BME_A_901

>  <ChemCompId>
BME

>  <PdbId>
1L84

>  <ChainId>
A

>  <ResidueNumber>
901

>  <InsertionCode>


>  <Model>
1

>  <AltIds>


>  <MissingHeavyAtoms>
0

>  <ObservedFormula>
C2 O S

>  <Name>
BETA-MERCAPTOETHANOL

>  <SystematicName>
2-sulfanylethanol

>  <Synonyms>


>  <Type>
NON-POLYMER

>  <Formula>
C2 H6 O S

>  <MolecularWeight>
78.133

>  <ModifiedDate>
2011-06-04

>  <Parent>


>  <OneLetterCode>


>  <SubcomponentList>


>  <AmbiguousFlag>
N

>  <InChI>
InChI=1S/C2H6OS/c3-1-2-4/h3-4H,1-2H2

>  <InChIKey>
DGVVWUTYPXICAM-UHFFFAOYSA-N

>  <SMILES>
C(CS)O

$$$$
1L89_BME_A_901
  RCSB PDB12061703093D
Coordinates from PDB:1L89:A:901 Model:1 without hydrogens
  4  3  0  0  0  0            999 V2000
   32.2770   -1.2920   15.0350   C 0  0  0  0  0  0  0  0  0  0  0  0
   32.3000   -0.8260   13.5990   C 0  0  0  0  0  0  0  0  0  0  0  0
   33.5290   -0.8120   15.5860   O 0  0  0  0  0  0  0  0  0  0  0  0
   33.7580   -1.5810   12.8900   S 0  0  0  0  0  0  0  0  0  0  0  0
  1  2  1  0  0  0  0
  1  3  1  0  0  0  0
  2  4  1  0  0  0  0
M  END
>  <InstanceId>
1L89_BME_A_901

>  <ChemCompId>
BME

>  <PdbId>
1L89

>  <ChainId>
A

>  <ResidueNumber>
901

>  <InsertionCode>


>  <Model>
1

>  <AltIds>


>  <MissingHeavyAtoms>
0

>  <ObservedFormula>
C2 O S

>  <Name>
BETA-MERCAPTOETHANOL

>  <SystematicName>
2-sulfanylethanol

>  <Synonyms>


>  <Type>
NON-POLYMER

>  <Formula>
C2 H6 O S

>  <MolecularWeight>
78.133

>  <ModifiedDate>
2011-06-04

>  <Parent>


>  <OneLetterCode>


>  <SubcomponentList>


>  <AmbiguousFlag>
N

>  <InChI>
InChI=1S/C2H6OS/c3-1-2-4/h3-4H,1-2H2

>  <InChIKey>
DGVVWUTYPXICAM-UHFFFAOYSA-N

>  <SMILES>
C(CS)O

$$$$
1L90_BME_A_901
  RCSB PDB12061703103D
Coordinates from PDB:1L90:A:901 Model:1 without hydrogens
  4  3  0  0  0  0            999 V2000
   31.8140   -1.3040   15.1050   C 0  0  0  0  0  0  0  0  0  0  0  0
   32.0410   -0.7470   13.7140   C 0  0  0  0  0  0  0  0  0  0  0  0
   32.9630   -0.9970   15.8800   O 0  0  0  0  0  0  0  0  0  0  0  0
   33.6120   -1.3650   13.0960   S 0  0  0  0  0  0  0  0  0  0  0  0
  1  2  1  0  0  0  0
  1  3  1  0  0  0  0
  2  4  1  0  0  0  0
M  END
>  <InstanceId>
1L90_BME_A_901

>  <ChemCompId>
BME

>  <PdbId>
1L90

>  <ChainId>
A

>  <ResidueNumber>
901

>  <InsertionCode>


>  <Model>
1

>  <AltIds>


>  <MissingHeavyAtoms>
0

>  <ObservedFormula>
C2 O S

>  <Name>
BETA-MERCAPTOETHANOL

>  <SystematicName>
2-sulfanylethanol

>  <Synonyms>


>  <Type>
NON-POLYMER

>  <Formula>
C2 H6 O S

>  <MolecularWeight>
78.133

>  <ModifiedDate>
2011-06-04

>  <Parent>


>  <OneLetterCode>


>  <SubcomponentList>


>  <AmbiguousFlag>
N

>  <InChI>
InChI=1S/C2H6OS/c3-1-2-4/h3-4H,1-2H2

>  <InChIKey>
DGVVWUTYPXICAM-UHFFFAOYSA-N

>  <SMILES>
C(CS)O

$$$$
1LGU_BME_A_169
  RCSB PDB12061703113D
Coordinates from PDB:1LGU:A:169 Model:1 without hydrogens
  4  3  0  0  0  0            999 V2000
   34.5400   14.6490   14.8370   C 0  0  0  0  0  0  0  0  0  0  0  0
   34.5050   15.3790   13.4360   C 0  0  0  0  0  0  0  0  0  0  0  0
   34.0300   15.4950   15.8150   O 0  0  0  0  0  0  0  0  0  0  0  0
   36.0530   16.2690   12.9390   S 0  0  0  0  0  0  0  0  0  0  0  0
  1  2  1  0  0  0  0
  1  3  1  0  0  0  0
  2  4  1  0  0  0  0
M  END
>  <InstanceId>
1LGU_BME_A_169

>  <ChemCompId>
BME

>  <PdbId>
1LGU

>  <ChainId>
A

>  <ResidueNumber>
169

>  <InsertionCode>


>  <Model>
1

>  <AltIds>


>  <MissingHeavyAtoms>
0

>  <ObservedFormula>
C2 O S

>  <Name>
BETA-MERCAPTOETHANOL

>  <SystematicName>
2-sulfanylethanol

>  <Synonyms>


>  <Type>
NON-POLYMER

>  <Formula>
C2 H6 O S

>  <MolecularWeight>
78.133

>  <ModifiedDate>
2011-06-04

>  <Parent>


>  <OneLetterCode>


>  <SubcomponentList>


>  <AmbiguousFlag>
N

>  <InChI>
InChI=1S/C2H6OS/c3-1-2-4/h3-4H,1-2H2

>  <InChIKey>
DGVVWUTYPXICAM-UHFFFAOYSA-N

>  <SMILES>
C(CS)O

$$$$
1LGW_BME_A_169
  RCSB PDB12061703113D
Coordinates from PDB:1LGW:A:169 Model:1 without hydrogens
  4  3  0  0  0  0            999 V2000
   27.4390    1.2940   19.4290   C 0  0  0  0  0  0  0  0  0  0  0  0
   27.9960    1.3690   17.9680   C 0  0  0  0  0  0  0  0  0  0  0  0
   28.4440    1.3820   20.4390   O 0  0  0  0  0  0  0  0  0  0  0  0
   26.7080    1.2110   16.6750   S 0  0  0  0  0  0  0  0  0  0  0  0
  1  2  1  0  0  0  0
  1  3  1  0  0  0  0
  2  4  1  0  0  0  0
M  END
>  <InstanceId>
1LGW_BME_A_169

>  <ChemCompId>
BME

>  <PdbId>
1LGW

>  <ChainId>
A

>  <ResidueNumber>
169

>  <InsertionCode>


>  <Model>
1

>  <AltIds>


>  <MissingHeavyAtoms>
0

>  <ObservedFormula>
C2 O S

>  <Name>
BETA-MERCAPTOETHANOL

>  <SystematicName>
2-sulfanylethanol

>  <Synonyms>


>  <Type>
NON-POLYMER

>  <Formula>
C2 H6 O S

>  <MolecularWeight>
78.133

>  <ModifiedDate>
2011-06-04

>  <Parent>


>  <OneLetterCode>


>  <SubcomponentList>


>  <AmbiguousFlag>
N

>  <InChI>
InChI=1S/C2H6OS/c3-1-2-4/h3-4H,1-2H2

>  <InChIKey>
DGVVWUTYPXICAM-UHFFFAOYSA-N

>  <SMILES>
C(CS)O

$$$$
1LGX_BME_A_169
  RCSB PDB12061703113D
Coordinates from PDB:1LGX:A:169 Model:1 without hydrogens
  4  3  0  0  0  0            999 V2000
   27.5400    1.1980   19.4520   C 0  0  0  0  0  0  0  0  0  0  0  0
   28.1100    1.2790   18.0100   C 0  0  0  0  0  0  0  0  0  0  0  0
   28.5300    1.3400   20.4610   O 0  0  0  0  0  0  0  0  0  0  0  0
   26.7960    1.1290   16.7430   S 0  0  0  0  0  0  0  0  0  0  0  0
  1  2  1  0  0  0  0
  1  3  1  0  0  0  0
  2  4  1  0  0  0  0
M  END
>  <InstanceId>
1LGX_BME_A_169

>  <ChemCompId>
BME

>  <PdbId>
1LGX

>  <ChainId>
A

>  <ResidueNumber>
169

>  <InsertionCode>


>  <Model>
1

>  <AltIds>


>  <MissingHeavyAtoms>
0

>  <ObservedFormula>
C2 O S

>  <Name>
BETA-MERCAPTOETHANOL

>  <SystematicName>
2-sulfanylethanol

>  <Synonyms>


>  <Type>
NON-POLYMER

>  <Formula>
C2 H6 O S

>  <MolecularWeight>
78.133

>  <ModifiedDate>
2011-06-04

>  <Parent>


>  <OneLetterCode>


>  <SubcomponentList>


>  <AmbiguousFlag>
N

>  <InChI>
InChI=1S/C2H6OS/c3-1-2-4/h3-4H,1-2H2

>  <InChIKey>
DGVVWUTYPXICAM-UHFFFAOYSA-N

>  <SMILES>
C(CS)O

$$$$
1LI2_BME_A_169
  RCSB PDB12061703113D
Coordinates from PDB:1LI2:A:169 Model:1 without hydrogens
  4  3  0  0  0  0            999 V2000
   27.8120    1.5720   19.4560   C 0  0  0  0  0  0  0  0  0  0  0  0
   28.4510    1.7180   18.0490   C 0  0  0  0  0  0  0  0  0  0  0  0
   28.8000    1.2240   20.3900   O 0  0  0  0  0  0  0  0  0  0  0  0
   27.2100    1.4960   16.7270   S 0  0  0  0  0  0  0  0  0  0  0  0
  1  2  1  0  0  0  0
  1  3  1  0  0  0  0
  2  4  1  0  0  0  0
M  END
>  <InstanceId>
1LI2_BME_A_169

>  <ChemCompId>
BME

>  <PdbId>
1LI2

>  <ChainId>
A

>  <ResidueNumber>
169

>  <InsertionCode>


>  <Model>
1

>  <AltIds>


>  <MissingHeavyAtoms>
0

>  <ObservedFormula>
C2 O S

>  <Name>
BETA-MERCAPTOETHANOL

>  <SystematicName>
2-sulfanylethanol

>  <Synonyms>


>  <Type>
NON-POLYMER

>  <Formula>
C2 H6 O S

>  <MolecularWeight>
78.133

>  <ModifiedDate>
2011-06-04

>  <Parent>


>  <OneLetterCode>


>  <SubcomponentList>


>  <AmbiguousFlag>
N

>  <InChI>
InChI=1S/C2H6OS/c3-1-2-4/h3-4H,1-2H2

>  <InChIKey>
DGVVWUTYPXICAM-UHFFFAOYSA-N

>  <SMILES>
C(CS)O

$$$$
1LI3_BME_A_169
  RCSB PDB12061703113D
Coordinates from PDB:1LI3:A:169 Model:1 without hydrogens
  4  3  0  0  0  0            999 V2000
   27.7380    1.3390   19.5600   C 0  0  0  0  0  0  0  0  0  0  0  0
   28.1840    1.3830   18.0770   C 0  0  0  0  0  0  0  0  0  0  0  0
   28.8260    1.3000   20.4320   O 0  0  0  0  0  0  0  0  0  0  0  0
   26.7910    1.5860   16.9590   S 0  0  0  0  0  0  0  0  0  0  0  0
  1  2  1  0  0  0  0
  1  3  1  0  0  0  0
  2  4  1  0  0  0  0
M  END
>  <InstanceId>
1LI3_BME_A_169

>  <ChemCompId>
BME

>  <PdbId>
1LI3

>  <ChainId>
A

>  <ResidueNumber>
169

>  <InsertionCode>


>  <Model>
1

>  <AltIds>


>  <MissingHeavyAtoms>
0

>  <ObservedFormula>
C2 O S

>  <Name>
BETA-MERCAPTOETHANOL

>  <SystematicName>
2-sulfanylethanol

>  <Synonyms>


>  <Type>
NON-POLYMER

>  <Formula>
C2 H6 O S

>  <MolecularWeight>
78.133

>  <ModifiedDate>
2011-06-04

>  <Parent>


>  <OneLetterCode>


>  <SubcomponentList>


>  <AmbiguousFlag>
N

>  <InChI>
InChI=1S/C2H6OS/c3-1-2-4/h3-4H,1-2H2

>  <InChIKey>
DGVVWUTYPXICAM-UHFFFAOYSA-N

>  <SMILES>
C(CS)O

$$$$
1LI6_BME_A_170
  RCSB PDB12061703113D
Coordinates from PDB:1LI6:A:170 Model:1 without hydrogens
  4  3  0  0  0  0            999 V2000
   33.6620   -1.6040   12.6650   C 0  0  0  0  0  0  0  0  0  0  0  0
   33.1820   -0.6710   13.7770   C 0  0  0  0  0  0  0  0  0  0  0  0
   33.5260   -1.0020   11.3770   O 0  0  0  0  0  0  0  0  0  0  0  0
   32.0080   -1.5370   14.8100   S 0  0  0  0  0  0  0  0  0  0  0  0
  1  2  1  0  0  0  0
  1  3  1  0  0  0  0
  2  4  1  0  0  0  0
M  END
>  <InstanceId>
1LI6_BME_A_170

>  <ChemCompId>
BME

>  <PdbId>
1LI6

>  <ChainId>
A

>  <ResidueNumber>
170

>  <InsertionCode>


>  <Model>
1

>  <AltIds>


>  <MissingHeavyAtoms>
0

>  <ObservedFormula>
C2 O S

>  <Name>
BETA-MERCAPTOETHANOL

>  <SystematicName>
2-sulfanylethanol

>  <Synonyms>


>  <Type>
NON-POLYMER

>  <Formula>
C2 H6 O S

>  <MolecularWeight>
78.133

>  <ModifiedDate>
2011-06-04

>  <Parent>


>  <OneLetterCode>


>  <SubcomponentList>


>  <AmbiguousFlag>
N

>  <InChI>
InChI=1S/C2H6OS/c3-1-2-4/h3-4H,1-2H2

>  <InChIKey>
DGVVWUTYPXICAM-UHFFFAOYSA-N

>  <SMILES>
C(CS)O

$$$$
1OV5_BME_A_169
  RCSB PDB12061703353D
Coordinates from PDB:1OV5:A:169 Model:1 without hydrogens
  4  3  0  0  0  0            999 V2000
   28.0330    1.4890   19.4830   C 0  0  0  0  0  0  0  0  0  0  0  0
   29.0090    1.6170   18.2950   C 0  0  0  0  0  0  0  0  0  0  0  0
   28.7010    1.7540   20.6960   O 0  0  0  0  0  0  0  0  0  0  0  0
   28.1590    1.6400   16.7140   S 0  0  0  0  0  0  0  0  0  0  0  0
  1  2  1  0  0  0  0
  1  3  1  0  0  0  0
  2  4  1  0  0  0  0
M  END
>  <InstanceId>
1OV5_BME_A_169

>  <ChemCompId>
BME

>  <PdbId>
1OV5

>  <ChainId>
A

>  <ResidueNumber>
169

>  <InsertionCode>


>  <Model>
1

>  <AltIds>


>  <MissingHeavyAtoms>
0

>  <ObservedFormula>
C2 O S

>  <Name>
BETA-MERCAPTOETHANOL

>  <SystematicName>
2-sulfanylethanol

>  <Synonyms>


>  <Type>
NON-POLYMER

>  <Formula>
C2 H6 O S

>  <MolecularWeight>
78.133

>  <ModifiedDate>
2011-06-04

>  <Parent>


>  <OneLetterCode>


>  <SubcomponentList>


>  <AmbiguousFlag>
N

>  <InChI>
InChI=1S/C2H6OS/c3-1-2-4/h3-4H,1-2H2

>  <InChIKey>
DGVVWUTYPXICAM-UHFFFAOYSA-N

>  <SMILES>
C(CS)O

$$$$
1OV7_BME_A_169
  RCSB PDB12061703363D
Coordinates from PDB:1OV7:A:169 Model:1 without hydrogens
  4  3  0  0  0  0            999 V2000
   27.7380    1.4510   19.3020   C 0  0  0  0  0  0  0  0  0  0  0  0
   28.2530    1.8600   17.9180   C 0  0  0  0  0  0  0  0  0  0  0  0
   28.7710    1.6040   20.2520   O 0  0  0  0  0  0  0  0  0  0  0  0
   27.1130    1.3360   16.6180   S 0  0  0  0  0  0  0  0  0  0  0  0
  1  2  1  0  0  0  0
  1  3  1  0  0  0  0
  2  4  1  0  0  0  0
M  END
>  <InstanceId>
1OV7_BME_A_169

>  <ChemCompId>
BME

>  <PdbId>
1OV7

>  <ChainId>
A

>  <ResidueNumber>
169

>  <InsertionCode>


>  <Model>
1

>  <AltIds>


>  <MissingHeavyAtoms>
0

>  <ObservedFormula>
C2 O S

>  <Name>
BETA-MERCAPTOETHANOL

>  <SystematicName>
2-sulfanylethanol

>  <Synonyms>


>  <Type>
NON-POLYMER

>  <Formula>
C2 H6 O S

>  <MolecularWeight>
78.133

>  <ModifiedDate>
2011-06-04

>  <Parent>


>  <OneLetterCode>


>  <SubcomponentList>


>  <AmbiguousFlag>
N

>  <InChI>
InChI=1S/C2H6OS/c3-1-2-4/h3-4H,1-2H2

>  <InChIKey>
DGVVWUTYPXICAM-UHFFFAOYSA-N

>  <SMILES>
C(CS)O

$$$$
1OVH_BME_A_168
  RCSB PDB12061703363D
Coordinates from PDB:1OVH:A:168 Model:1 without hydrogens
  4  3  0  0  0  0            999 V2000
   27.5120    1.5340   18.9270   C 0  0  0  0  0  0  0  0  0  0  0  0
   28.0300    1.4930   17.4760   C 0  0  0  0  0  0  0  0  0  0  0  0
   28.4540    1.1980   19.8850   O 0  0  0  0  0  0  0  0  0  0  0  0
   26.6910    1.2040   16.3040   S 0  0  0  0  0  0  0  0  0  0  0  0
  1  2  1  0  0  0  0
  1  3  1  0  0  0  0
  2  4  1  0  0  0  0
M  END
>  <InstanceId>
1OVH_BME_A_168

>  <ChemCompId>
BME

>  <PdbId>
1OVH

>  <ChainId>
A

>  <ResidueNumber>
168

>  <InsertionCode>


>  <Model>
1

>  <AltIds>


>  <MissingHeavyAtoms>
0

>  <ObservedFormula>
C2 O S

>  <Name>
BETA-MERCAPTOETHANOL

>  <SystematicName>
2-sulfanylethanol

>  <Synonyms>


>  <Type>
NON-POLYMER

>  <Formula>
C2 H6 O S

>  <MolecularWeight>
78.133

>  <ModifiedDate>
2011-06-04

>  <Parent>


>  <OneLetterCode>


>  <SubcomponentList>


>  <AmbiguousFlag>
N

>  <InChI>
InChI=1S/C2H6OS/c3-1-2-4/h3-4H,1-2H2

>  <InChIKey>
DGVVWUTYPXICAM-UHFFFAOYSA-N

>  <SMILES>
C(CS)O

$$$$
1OVJ_BME_A_168
  RCSB PDB12061703363D
Coordinates from PDB:1OVJ:A:168 Model:1 without hydrogens
  4  3  0  0  0  0            999 V2000
   27.5910    1.3380   19.3820   C 0  0  0  0  0  0  0  0  0  0  0  0
   28.0040    1.8240   17.9560   C 0  0  0  0  0  0  0  0  0  0  0  0
   28.7650    0.9250   20.0730   O 0  0  0  0  0  0  0  0  0  0  0  0
   26.9400    1.2340   16.6000   S 0  0  0  0  0  0  0  0  0  0  0  0
  1  2  1  0  0  0  0
  1  3  1  0  0  0  0
  2  4  1  0  0  0  0
M  END
>  <InstanceId>
1OVJ_BME_A_168

>  <ChemCompId>
BME

>  <PdbId>
1OVJ

>  <ChainId>
A

>  <ResidueNumber>
168

>  <InsertionCode>


>  <Model>
1

>  <AltIds>


>  <MissingHeavyAtoms>
0

>  <ObservedFormula>
C2 O S

>  <Name>
BETA-MERCAPTOETHANOL

>  <SystematicName>
2-sulfanylethanol

>  <Synonyms>


>  <Type>
NON-POLYMER

>  <Formula>
C2 H6 O S

>  <MolecularWeight>
78.133

>  <ModifiedDate>
2011-06-04

>  <Parent>


>  <OneLetterCode>


>  <SubcomponentList>


>  <AmbiguousFlag>
N

>  <InChI>
InChI=1S/C2H6OS/c3-1-2-4/h3-4H,1-2H2

>  <InChIKey>
DGVVWUTYPXICAM-UHFFFAOYSA-N

>  <SMILES>
C(CS)O

$$$$
1OVK_BME_A_168
  RCSB PDB12061703363D
Coordinates from PDB:1OVK:A:168 Model:1 without hydrogens
  4  3  0  0  0  0            999 V2000
   27.6350    1.4820   19.1180   C 0  0  0  0  0  0  0  0  0  0  0  0
   28.2980    1.5630   17.7220   C 0  0  0  0  0  0  0  0  0  0  0  0
   28.5800    1.5140   20.1730   O 0  0  0  0  0  0  0  0  0  0  0  0
   27.0570    1.4510   16.3900   S 0  0  0  0  0  0  0  0  0  0  0  0
  1  2  1  0  0  0  0
  1  3  1  0  0  0  0
  2  4  1  0  0  0  0
M  END
>  <InstanceId>
1OVK_BME_A_168

>  <ChemCompId>
BME

>  <PdbId>
1OVK

>  <ChainId>
A

>  <ResidueNumber>
168

>  <InsertionCode>


>  <Model>
1

>  <AltIds>


>  <MissingHeavyAtoms>
0

>  <ObservedFormula>
C2 O S

>  <Name>
BETA-MERCAPTOETHANOL

>  <SystematicName>
2-sulfanylethanol

>  <Synonyms>


>  <Type>
NON-POLYMER

>  <Formula>
C2 H6 O S

>  <MolecularWeight>
78.133

>  <ModifiedDate>
2011-06-04

>  <Parent>


>  <OneLetterCode>


>  <SubcomponentList>


>  <AmbiguousFlag>
N

>  <InChI>
InChI=1S/C2H6OS/c3-1-2-4/h3-4H,1-2H2

>  <InChIKey>
DGVVWUTYPXICAM-UHFFFAOYSA-N

>  <SMILES>
C(CS)O

$$$$
1OWY_BME_A_168
  RCSB PDB12061703363D
Coordinates from PDB:1OWY:A:168 Model:1 without hydrogens
  4  3  0  0  0  0            999 V2000
   27.4140    1.4030   19.2060   C 0  0  0  0  0  0  0  0  0  0  0  0
   27.9560    1.6290   17.7770   C 0  0  0  0  0  0  0  0  0  0  0  0
   28.4570    1.4670   20.1690   O 0  0  0  0  0  0  0  0  0  0  0  0
   26.6930    1.2500   16.5250   S 0  0  0  0  0  0  0  0  0  0  0  0
  1  2  1  0  0  0  0
  1  3  1  0  0  0  0
  2  4  1  0  0  0  0
M  END
>  <InstanceId>
1OWY_BME_A_168

>  <ChemCompId>
BME

>  <PdbId>
1OWY

>  <ChainId>
A

>  <ResidueNumber>
168

>  <InsertionCode>


>  <Model>
1

>  <AltIds>


>  <MissingHeavyAtoms>
0

>  <ObservedFormula>
C2 O S

>  <Name>
BETA-MERCAPTOETHANOL

>  <SystematicName>
2-sulfanylethanol

>  <Synonyms>


>  <Type>
NON-POLYMER

>  <Formula>
C2 H6 O S

>  <MolecularWeight>
78.133

>  <ModifiedDate>
2011-06-04

>  <Parent>


>  <OneLetterCode>


>  <SubcomponentList>


>  <AmbiguousFlag>
N

>  <InChI>
InChI=1S/C2H6OS/c3-1-2-4/h3-4H,1-2H2

>  <InChIKey>
DGVVWUTYPXICAM-UHFFFAOYSA-N

>  <SMILES>
C(CS)O

$$$$
1OWZ_BME_A_168
  RCSB PDB12061703363D
Coordinates from PDB:1OWZ:A:168 Model:1 without hydrogens
  4  3  0  0  0  0            999 V2000
   27.4730    1.4320   19.1460   C 0  0  0  0  0  0  0  0  0  0  0  0
   28.1320    1.4700   17.7430   C 0  0  0  0  0  0  0  0  0  0  0  0
   28.4640    1.2910   20.1640   O 0  0  0  0  0  0  0  0  0  0  0  0
   26.8590    1.4810   16.4540   S 0  0  0  0  0  0  0  0  0  0  0  0
  1  2  1  0  0  0  0
  1  3  1  0  0  0  0
  2  4  1  0  0  0  0
M  END
>  <InstanceId>
1OWZ_BME_A_168

>  <ChemCompId>
BME

>  <PdbId>
1OWZ

>  <ChainId>
A

>  <ResidueNumber>
168

>  <InsertionCode>


>  <Model>
1

>  <AltIds>


>  <MissingHeavyAtoms>
0

>  <ObservedFormula>
C2 O S

>  <Name>
BETA-MERCAPTOETHANOL

>  <SystematicName>
2-sulfanylethanol

>  <Synonyms>


>  <Type>
NON-POLYMER

>  <Formula>
C2 H6 O S

>  <MolecularWeight>
78.133

>  <ModifiedDate>
2011-06-04

>  <Parent>


>  <OneLetterCode>


>  <SubcomponentList>


>  <AmbiguousFlag>
N

>  <InChI>
InChI=1S/C2H6OS/c3-1-2-4/h3-4H,1-2H2

>  <InChIKey>
DGVVWUTYPXICAM-UHFFFAOYSA-N

>  <SMILES>
C(CS)O

$$$$
1XEP_BME_A_610
  RCSB PDB12061704373D
Coordinates from PDB:1XEP:A:610 Model:1 without hydrogens
  4  3  0  0  0  0            999 V2000
   32.7280    1.4620   15.8730   C 0  0  0  0  0  0  0  0  0  0  0  0
   31.7310    2.0370   16.8590   C 0  0  0  0  0  0  0  0  0  0  0  0
   32.2240    1.1710   14.7400   O 0  0  0  0  0  0  0  0  0  0  0  0
   32.2750    1.8160   18.5780   S 0  0  0  0  0  0  0  0  0  0  0  0
  1  2  1  0  0  0  0
  1  3  1  0  0  0  0
  2  4  1  0  0  0  0
M  END
>  <InstanceId>
1XEP_BME_A_610

>  <ChemCompId>
BME

>  <PdbId>
1XEP

>  <ChainId>
A

>  <ResidueNumber>
610

>  <InsertionCode>


>  <Model>
1

>  <AltIds>


>  <MissingHeavyAtoms>
0

>  <ObservedFormula>
C2 O S

>  <Name>
BETA-MERCAPTOETHANOL

>  <SystematicName>
2-sulfanylethanol

>  <Synonyms>


>  <Type>
NON-POLYMER

>  <Formula>
C2 H6 O S

>  <MolecularWeight>
78.133

>  <ModifiedDate>
2011-06-04

>  <Parent>


>  <OneLetterCode>


>  <SubcomponentList>


>  <AmbiguousFlag>
N

>  <InChI>
InChI=1S/C2H6OS/c3-1-2-4/h3-4H,1-2H2

>  <InChIKey>
DGVVWUTYPXICAM-UHFFFAOYSA-N

>  <SMILES>
C(CS)O

$$$$
2B6T_BME_A_901
  RCSB PDB12061705053D
Coordinates from PDB:2B6T:A:901 Model:1 without hydrogens
  4  3  0  0  0  0            999 V2000
   31.5190   -1.6170   15.0240   C 0  0  0  0  0  0  0  0  0  0  0  0
   31.4580   -0.7200   13.8060   C 0  0  0  0  0  0  0  0  0  0  0  0
   32.6460   -1.2300   15.8280   O 0  0  0  0  0  0  0  0  0  0  0  0
   33.0530   -0.8540   12.9730   S 0  0  0  0  0  0  0  0  0  0  0  0
  1  2  1  0  0  0  0
  1  3  1  0  0  0  0
  2  4  1  0  0  0  0
M  END
>  <InstanceId>
2B6T_BME_A_901

>  <ChemCompId>
BME

>  <PdbId>
2B6T

>  <ChainId>
A

>  <ResidueNumber>
901

>  <InsertionCode>


>  <Model>
1

>  <AltIds>


>  <MissingHeavyAtoms>
0

>  <ObservedFormula>
C2 O S

>  <Name>
BETA-MERCAPTOETHANOL

>  <SystematicName>
2-sulfanylethanol

>  <Synonyms>


>  <Type>
NON-POLYMER

>  <Formula>
C2 H6 O S

>  <MolecularWeight>
78.133

>  <ModifiedDate>
2011-06-04

>  <Parent>


>  <OneLetterCode>


>  <SubcomponentList>


>  <AmbiguousFlag>
N

>  <InChI>
InChI=1S/C2H6OS/c3-1-2-4/h3-4H,1-2H2

>  <InChIKey>
DGVVWUTYPXICAM-UHFFFAOYSA-N

>  <SMILES>
C(CS)O

$$$$
2B6W_BME_A_901
  RCSB PDB12061705053D
Coordinates from PDB:2B6W:A:901 Model:1 without hydrogens
  4  3  0  0  0  0            999 V2000
   30.8500   -1.3170   14.5420   C 0  0  0  0  0  0  0  0  0  0  0  0
   31.2710   -0.5440   13.3100   C 0  0  0  0  0  0  0  0  0  0  0  0
   32.0380   -1.5260   15.2970   O 0  0  0  0  0  0  0  0  0  0  0  0
   32.9830   -1.0020   12.9690   S 0  0  0  0  0  0  0  0  0  0  0  0
  1  2  1  0  0  0  0
  1  3  1  0  0  0  0
  2  4  1  0  0  0  0
M  END
>  <InstanceId>
2B6W_BME_A_901

>  <ChemCompId>
BME

>  <PdbId>
2B6W

>  <ChainId>
A

>  <ResidueNumber>
901

>  <InsertionCode>


>  <Model>
1

>  <AltIds>


>  <MissingHeavyAtoms>
0

>  <ObservedFormula>
C2 O S

>  <Name>
BETA-MERCAPTOETHANOL

>  <SystematicName>
2-sulfanylethanol

>  <Synonyms>


>  <Type>
NON-POLYMER

>  <Formula>
C2 H6 O S

>  <MolecularWeight>
78.133

>  <ModifiedDate>
2011-06-04

>  <Parent>


>  <OneLetterCode>


>  <SubcomponentList>


>  <AmbiguousFlag>
N

>  <InChI>
InChI=1S/C2H6OS/c3-1-2-4/h3-4H,1-2H2

>  <InChIKey>
DGVVWUTYPXICAM-UHFFFAOYSA-N

>  <SMILES>
C(CS)O

$$$$
2B6X_BME_A_901
  RCSB PDB12061705053D
Coordinates from PDB:2B6X:A:901 Model:1 without hydrogens
  4  3  0  0  0  0            999 V2000
   31.5260   -1.4830   14.9910   C 0  0  0  0  0  0  0  0  0  0  0  0
   31.3780   -0.6660   13.7260   C 0  0  0  0  0  0  0  0  0  0  0  0
   32.7130   -1.0460   15.6780   O 0  0  0  0  0  0  0  0  0  0  0  0
   32.9140   -0.8990   12.8120   S 0  0  0  0  0  0  0  0  0  0  0  0
  1  2  1  0  0  0  0
  1  3  1  0  0  0  0
  2  4  1  0  0  0  0
M  END
>  <InstanceId>
2B6X_BME_A_901

>  <ChemCompId>
BME

>  <PdbId>
2B6X

>  <ChainId>
A

>  <ResidueNumber>
901

>  <InsertionCode>


>  <Model>
1

>  <AltIds>


>  <MissingHeavyAtoms>
0

>  <ObservedFormula>
C2 O S

>  <Name>
BETA-MERCAPTOETHANOL

>  <SystematicName>
2-sulfanylethanol

>  <Synonyms>


>  <Type>
NON-POLYMER

>  <Formula>
C2 H6 O S

>  <MolecularWeight>
78.133

>  <ModifiedDate>
2011-06-04

>  <Parent>


>  <OneLetterCode>


>  <SubcomponentList>


>  <AmbiguousFlag>
N

>  <InChI>
InChI=1S/C2H6OS/c3-1-2-4/h3-4H,1-2H2

>  <InChIKey>
DGVVWUTYPXICAM-UHFFFAOYSA-N

>  <SMILES>
C(CS)O

$$$$
2B6Y_BME_A_901
  RCSB PDB12061705053D
Coordinates from PDB:2B6Y:A:901 Model:1 without hydrogens
  4  3  0  0  0  0            999 V2000
   31.8760   -1.5090   15.0680   C 0  0  0  0  0  0  0  0  0  0  0  0
   31.7750   -0.7870   13.7560   C 0  0  0  0  0  0  0  0  0  0  0  0
   33.1210   -1.0780   15.6610   O 0  0  0  0  0  0  0  0  0  0  0  0
   33.4030   -0.9950   13.0030   S 0  0  0  0  0  0  0  0  0  0  0  0
  1  2  1  0  0  0  0
  1  3  1  0  0  0  0
  2  4  1  0  0  0  0
M  END
>  <InstanceId>
2B6Y_BME_A_901

>  <ChemCompId>
BME

>  <PdbId>
2B6Y

>  <ChainId>
A

>  <ResidueNumber>
901

>  <InsertionCode>


>  <Model>
1

>  <AltIds>


>  <MissingHeavyAtoms>
0

>  <ObservedFormula>
C2 O S

>  <Name>
BETA-MERCAPTOETHANOL

>  <SystematicName>
2-sulfanylethanol

>  <Synonyms>


>  <Type>
NON-POLYMER

>  <Formula>
C2 H6 O S

>  <MolecularWeight>
78.133

>  <ModifiedDate>
2011-06-04

>  <Parent>


>  <OneLetterCode>


>  <SubcomponentList>


>  <AmbiguousFlag>
N

>  <InChI>
InChI=1S/C2H6OS/c3-1-2-4/h3-4H,1-2H2

>  <InChIKey>
DGVVWUTYPXICAM-UHFFFAOYSA-N

>  <SMILES>
C(CS)O

$$$$
2B6Z_BME_A_901
  RCSB PDB12061705053D
Coordinates from PDB:2B6Z:A:901 Model:1 without hydrogens
  4  3  0  0  0  0            999 V2000
   31.8680   -1.5150   15.0140   C 0  0  0  0  0  0  0  0  0  0  0  0
   31.7580   -0.8020   13.6870   C 0  0  0  0  0  0  0  0  0  0  0  0
   33.0630   -1.0440   15.6670   O 0  0  0  0  0  0  0  0  0  0  0  0
   33.3540   -0.9630   12.8510   S 0  0  0  0  0  0  0  0  0  0  0  0
  1  2  1  0  0  0  0
  1  3  1  0  0  0  0
  2  4  1  0  0  0  0
M  END
>  <InstanceId>
2B6Z_BME_A_901

>  <ChemCompId>
BME

>  <PdbId>
2B6Z

>  <ChainId>
A

>  <ResidueNumber>
901

>  <InsertionCode>


>  <Model>
1

>  <AltIds>


>  <MissingHeavyAtoms>
0

>  <ObservedFormula>
C2 O S

>  <Name>
BETA-MERCAPTOETHANOL

>  <SystematicName>
2-sulfanylethanol

>  <Synonyms>


>  <Type>
NON-POLYMER

>  <Formula>
C2 H6 O S

>  <MolecularWeight>
78.133

>  <ModifiedDate>
2011-06-04

>  <Parent>


>  <OneLetterCode>


>  <SubcomponentList>


>  <AmbiguousFlag>
N

>  <InChI>
InChI=1S/C2H6OS/c3-1-2-4/h3-4H,1-2H2

>  <InChIKey>
DGVVWUTYPXICAM-UHFFFAOYSA-N

>  <SMILES>
C(CS)O

$$$$
2B70_BME_A_901
  RCSB PDB12061705053D
Coordinates from PDB:2B70:A:901 Model:1 without hydrogens
  4  3  0  0  0  0            999 V2000
   32.1500   -1.6670   15.3770   C 0  0  0  0  0  0  0  0  0  0  0  0
   31.6510   -1.1360   14.0600   C 0  0  0  0  0  0  0  0  0  0  0  0
   33.3260   -0.9360   15.7750   O 0  0  0  0  0  0  0  0  0  0  0  0
   33.1290   -1.0080   13.0350   S 0  0  0  0  0  0  0  0  0  0  0  0
  1  2  1  0  0  0  0
  1  3  1  0  0  0  0
  2  4  1  0  0  0  0
M  END
>  <InstanceId>
2B70_BME_A_901

>  <ChemCompId>
BME

>  <PdbId>
2B70

>  <ChainId>
A

>  <ResidueNumber>
901

>  <InsertionCode>


>  <Model>
1

>  <AltIds>


>  <MissingHeavyAtoms>
0

>  <ObservedFormula>
C2 O S

>  <Name>
BETA-MERCAPTOETHANOL

>  <SystematicName>
2-sulfanylethanol

>  <Synonyms>


>  <Type>
NON-POLYMER

>  <Formula>
C2 H6 O S

>  <MolecularWeight>
78.133

>  <ModifiedDate>
2011-06-04

>  <Parent>


>  <OneLetterCode>


>  <SubcomponentList>


>  <AmbiguousFlag>
N

>  <InChI>
InChI=1S/C2H6OS/c3-1-2-4/h3-4H,1-2H2

>  <InChIKey>
DGVVWUTYPXICAM-UHFFFAOYSA-N

>  <SMILES>
C(CS)O

$$$$
2B72_BME_A_901
  RCSB PDB12061705053D
Coordinates from PDB:2B72:A:901 Model:1 without hydrogens
  4  3  0  0  0  0            999 V2000
   31.6560   -1.4380   14.9510   C 0  0  0  0  0  0  0  0  0  0  0  0
   31.6750   -0.6980   13.6420   C 0  0  0  0  0  0  0  0  0  0  0  0
   32.8220   -1.0400   15.6940   O 0  0  0  0  0  0  0  0  0  0  0  0
   33.2910   -1.0450   12.9170   S 0  0  0  0  0  0  0  0  0  0  0  0
  1  2  1  0  0  0  0
  1  3  1  0  0  0  0
  2  4  1  0  0  0  0
M  END
>  <InstanceId>
2B72_BME_A_901

>  <ChemCompId>
BME

>  <PdbId>
2B72

>  <ChainId>
A

>  <ResidueNumber>
901

>  <InsertionCode>


>  <Model>
1

>  <AltIds>


>  <MissingHeavyAtoms>
0

>  <ObservedFormula>
C2 O S

>  <Name>
BETA-MERCAPTOETHANOL

>  <SystematicName>
2-sulfanylethanol

>  <Synonyms>


>  <Type>
NON-POLYMER

>  <Formula>
C2 H6 O S

>  <MolecularWeight>
78.133

>  <ModifiedDate>
2011-06-04

>  <Parent>


>  <OneLetterCode>


>  <SubcomponentList>


>  <AmbiguousFlag>
N

>  <InChI>
InChI=1S/C2H6OS/c3-1-2-4/h3-4H,1-2H2

>  <InChIKey>
DGVVWUTYPXICAM-UHFFFAOYSA-N

>  <SMILES>
C(CS)O

$$$$
2B73_BME_A_901
  RCSB PDB12061705053D
Coordinates from PDB:2B73:A:901 Model:1 without hydrogens
  4  3  0  0  0  0            999 V2000
   31.7180   -1.4380   14.9070   C 0  0  0  0  0  0  0  0  0  0  0  0
   31.7030   -0.7010   13.5900   C 0  0  0  0  0  0  0  0  0  0  0  0
   32.8830   -1.0240   15.6500   O 0  0  0  0  0  0  0  0  0  0  0  0
   33.3130   -1.0680   12.8500   S 0  0  0  0  0  0  0  0  0  0  0  0
  1  2  1  0  0  0  0
  1  3  1  0  0  0  0
  2  4  1  0  0  0  0
M  END
>  <InstanceId>
2B73_BME_A_901

>  <ChemCompId>
BME

>  <PdbId>
2B73

>  <ChainId>
A

>  <ResidueNumber>
901

>  <InsertionCode>


>  <Model>
1

>  <AltIds>


>  <MissingHeavyAtoms>
0

>  <ObservedFormula>
C2 O S

>  <Name>
BETA-MERCAPTOETHANOL

>  <SystematicName>
2-sulfanylethanol

>  <Synonyms>


>  <Type>
NON-POLYMER

>  <Formula>
C2 H6 O S

>  <MolecularWeight>
78.133

>  <ModifiedDate>
2011-06-04

>  <Parent>


>  <OneLetterCode>


>  <SubcomponentList>


>  <AmbiguousFlag>
N

>  <InChI>
InChI=1S/C2H6OS/c3-1-2-4/h3-4H,1-2H2

>  <InChIKey>
DGVVWUTYPXICAM-UHFFFAOYSA-N

>  <SMILES>
C(CS)O

$$$$
2B74_BME_A_901
  RCSB PDB12061705053D
Coordinates from PDB:2B74:A:901 Model:1 without hydrogens
  4  3  0  0  0  0            999 V2000
   31.4930   -1.2690   14.7440   C 0  0  0  0  0  0  0  0  0  0  0  0
   31.7810   -0.5030   13.4790   C 0  0  0  0  0  0  0  0  0  0  0  0
   32.6500   -1.0910   15.5770   O 0  0  0  0  0  0  0  0  0  0  0  0
   33.3500   -1.1410   12.8400   S 0  0  0  0  0  0  0  0  0  0  0  0
  1  2  1  0  0  0  0
  1  3  1  0  0  0  0
  2  4  1  0  0  0  0
M  END
>  <InstanceId>
2B74_BME_A_901

>  <ChemCompId>
BME

>  <PdbId>
2B74

>  <ChainId>
A

>  <ResidueNumber>
901

>  <InsertionCode>


>  <Model>
1

>  <AltIds>


>  <MissingHeavyAtoms>
0

>  <ObservedFormula>
C2 O S

>  <Name>
BETA-MERCAPTOETHANOL

>  <SystematicName>
2-sulfanylethanol

>  <Synonyms>


>  <Type>
NON-POLYMER

>  <Formula>
C2 H6 O S

>  <MolecularWeight>
78.133

>  <ModifiedDate>
2011-06-04

>  <Parent>


>  <OneLetterCode>


>  <SubcomponentList>


>  <AmbiguousFlag>
N

>  <InChI>
InChI=1S/C2H6OS/c3-1-2-4/h3-4H,1-2H2

>  <InChIKey>
DGVVWUTYPXICAM-UHFFFAOYSA-N

>  <SMILES>
C(CS)O

$$$$
2B75_BME_A_901
  RCSB PDB12061705053D
Coordinates from PDB:2B75:A:901 Model:1 without hydrogens
  4  3  0  0  0  0            999 V2000
   31.5470   -1.5270   14.9420   C 0  0  0  0  0  0  0  0  0  0  0  0
   31.5420   -0.6790   13.6960   C 0  0  0  0  0  0  0  0  0  0  0  0
   32.7010   -1.1370   15.7060   O 0  0  0  0  0  0  0  0  0  0  0  0
   33.1900   -0.8900   12.9970   S 0  0  0  0  0  0  0  0  0  0  0  0
  1  2  1  0  0  0  0
  1  3  1  0  0  0  0
  2  4  1  0  0  0  0
M  END
>  <InstanceId>
2B75_BME_A_901

>  <ChemCompId>
BME

>  <PdbId>
2B75

>  <ChainId>
A

>  <ResidueNumber>
901

>  <InsertionCode>


>  <Model>
1

>  <AltIds>


>  <MissingHeavyAtoms>
0

>  <ObservedFormula>
C2 O S

>  <Name>
BETA-MERCAPTOETHANOL

>  <SystematicName>
2-sulfanylethanol

>  <Synonyms>


>  <Type>
NON-POLYMER

>  <Formula>
C2 H6 O S

>  <MolecularWeight>
78.133

>  <ModifiedDate>
2011-06-04

>  <Parent>


>  <OneLetterCode>


>  <SubcomponentList>


>  <AmbiguousFlag>
N

>  <InChI>
InChI=1S/C2H6OS/c3-1-2-4/h3-4H,1-2H2

>  <InChIKey>
DGVVWUTYPXICAM-UHFFFAOYSA-N

>  <SMILES>
C(CS)O

$$$$
2OTY_BME_X_304
  RCSB PDB12061706333D
Coordinates from PDB:2OTY:X:304 Model:1 without hydrogens
  4  3  0  0  0  0            999 V2000
  -17.4920   28.5940  -19.0190   C 0  0  0  0  0  0  0  0  0  0  0  0
  -17.4930   27.9900  -17.6210   C 0  0  0  0  0  0  0  0  0  0  0  0
  -17.2610   27.5710  -19.9620   O 0  0  0  0  0  0  0  0  0  0  0  0
  -18.0600   29.1480  -16.3540   S 0  0  0  0  0  0  0  0  0  0  0  0
  1  2  1  0  0  0  0
  1  3  1  0  0  0  0
  2  4  1  0  0  0  0
M  END
>  <InstanceId>
2OTY_BME_X_304

>  <ChemCompId>
BME

>  <PdbId>
2OTY

>  <ChainId>
X

>  <ResidueNumber>
304

>  <InsertionCode>


>  <Model>
1

>  <AltIds>


>  <MissingHeavyAtoms>
0

>  <ObservedFormula>
C2 O S

>  <Name>
BETA-MERCAPTOETHANOL

>  <SystematicName>
2-sulfanylethanol

>  <Synonyms>


>  <Type>
NON-POLYMER

>  <Formula>
C2 H6 O S

>  <MolecularWeight>
78.133

>  <ModifiedDate>
2011-06-04

>  <Parent>


>  <OneLetterCode>


>  <SubcomponentList>


>  <AmbiguousFlag>
N

>  <InChI>
InChI=1S/C2H6OS/c3-1-2-4/h3-4H,1-2H2

>  <InChIKey>
DGVVWUTYPXICAM-UHFFFAOYSA-N

>  <SMILES>
C(CS)O

$$$$
3DKE_BME_X_805
  RCSB PDB12061708203D
Coordinates from PDB:3DKE:X:805 Model:1 without hydrogens
  4  3  0  0  0  0            999 V2000
   29.5300   26.4710   21.7270   C 0  0  0  0  0  0  0  0  0  0  0  0
   30.4600   27.6450   22.0350   C 0  0  0  0  0  0  0  0  0  0  0  0
   29.9480   25.8140   20.5450   O 0  0  0  0  0  0  0  0  0  0  0  0
   30.0000   29.2010   21.2180   S 0  0  0  0  0  0  0  0  0  0  0  0
  1  2  1  0  0  0  0
  1  3  1  0  0  0  0
  2  4  1  0  0  0  0
M  END
>  <InstanceId>
3DKE_BME_X_805

>  <ChemCompId>
BME

>  <PdbId>
3DKE

>  <ChainId>
X

>  <ResidueNumber>
805

>  <InsertionCode>


>  <Model>
1

>  <AltIds>


>  <MissingHeavyAtoms>
0

>  <ObservedFormula>
C2 O S

>  <Name>
BETA-MERCAPTOETHANOL

>  <SystematicName>
2-sulfanylethanol

>  <Synonyms>


>  <Type>
NON-POLYMER

>  <Formula>
C2 H6 O S

>  <MolecularWeight>
78.133

>  <ModifiedDate>
2011-06-04

>  <Parent>


>  <OneLetterCode>


>  <SubcomponentList>


>  <AmbiguousFlag>
N

>  <InChI>
InChI=1S/C2H6OS/c3-1-2-4/h3-4H,1-2H2

>  <InChIKey>
DGVVWUTYPXICAM-UHFFFAOYSA-N

>  <SMILES>
C(CS)O

$$$$
3DMV_BME_A_906
  RCSB PDB12061708203D
Coordinates from PDB:3DMV:A:906 Model:1 without hydrogens
  4  3  0  0  0  0            999 V2000
   34.6710   17.5990   12.0880   C 0  0  0  0  0  0  0  0  0  0  0  0
   35.6530   16.8300   12.9710   C 0  0  0  0  0  0  0  0  0  0  0  0
   33.4070   16.9870   12.2090   O 0  0  0  0  0  0  0  0  0  0  0  0
   35.0460   15.1710   13.4090   S 0  0  0  0  0  0  0  0  0  0  0  0
  1  2  1  0  0  0  0
  1  3  1  0  0  0  0
  2  4  1  0  0  0  0
M  END
>  <InstanceId>
3DMV_BME_A_906

>  <ChemCompId>
BME

>  <PdbId>
3DMV

>  <ChainId>
A

>  <ResidueNumber>
906

>  <InsertionCode>


>  <Model>
1

>  <AltIds>


>  <MissingHeavyAtoms>
0

>  <ObservedFormula>
C2 O S

>  <Name>
BETA-MERCAPTOETHANOL

>  <SystematicName>
2-sulfanylethanol

>  <Synonyms>


>  <Type>
NON-POLYMER

>  <Formula>
C2 H6 O S

>  <MolecularWeight>
78.133

>  <ModifiedDate>
2011-06-04

>  <Parent>


>  <OneLetterCode>


>  <SubcomponentList>


>  <AmbiguousFlag>
N

>  <InChI>
InChI=1S/C2H6OS/c3-1-2-4/h3-4H,1-2H2

>  <InChIKey>
DGVVWUTYPXICAM-UHFFFAOYSA-N

>  <SMILES>
C(CS)O

$$$$
3DN8_BME_A_905
  RCSB PDB12061708203D
Coordinates from PDB:3DN8:A:905 Model:1 without hydrogens
  4  3  0  0  0  0            999 V2000
   26.7240   -0.9650   12.5320   C 0  0  0  0  0  0  0  0  0  0  0  0
   27.4740   -1.1570   13.8370   C 0  0  0  0  0  0  0  0  0  0  0  0
   26.8650   -2.1240   11.7420   O 0  0  0  0  0  0  0  0  0  0  0  0
   26.3430   -1.5100   15.1960   S 0  0  0  0  0  0  0  0  0  0  0  0
  1  2  1  0  0  0  0
  1  3  1  0  0  0  0
  2  4  1  0  0  0  0
M  END
>  <InstanceId>
3DN8_BME_A_905

>  <ChemCompId>
BME

>  <PdbId>
3DN8

>  <ChainId>
A

>  <ResidueNumber>
905

>  <InsertionCode>


>  <Model>
1

>  <AltIds>


>  <MissingHeavyAtoms>
0

>  <ObservedFormula>
C2 O S

>  <Name>
BETA-MERCAPTOETHANOL

>  <SystematicName>
2-sulfanylethanol

>  <Synonyms>


>  <Type>
NON-POLYMER

>  <Formula>
C2 H6 O S

>  <MolecularWeight>
78.133

>  <ModifiedDate>
2011-06-04

>  <Parent>


>  <OneLetterCode>


>  <SubcomponentList>


>  <AmbiguousFlag>
N

>  <InChI>
InChI=1S/C2H6OS/c3-1-2-4/h3-4H,1-2H2

>  <InChIKey>
DGVVWUTYPXICAM-UHFFFAOYSA-N

>  <SMILES>
C(CS)O

$$$$
3DNA_BME_A_905
  RCSB PDB12061708203D
Coordinates from PDB:3DNA:A:905 Model:1 without hydrogens
  4  3  0  0  0  0            999 V2000
   26.7920   -0.9570   13.2360   C 0  0  0  0  0  0  0  0  0  0  0  0
   27.2410   -1.4910   14.5910   C 0  0  0  0  0  0  0  0  0  0  0  0
   27.8260   -1.1290   12.2940   O 0  0  0  0  0  0  0  0  0  0  0  0
   25.9160   -1.4090   15.8260   S 0  0  0  0  0  0  0  0  0  0  0  0
  1  2  1  0  0  0  0
  1  3  1  0  0  0  0
  2  4  1  0  0  0  0
M  END
>  <InstanceId>
3DNA_BME_A_905

>  <ChemCompId>
BME

>  <PdbId>
3DNA

>  <ChainId>
A

>  <ResidueNumber>
905

>  <InsertionCode>


>  <Model>
1

>  <AltIds>


>  <MissingHeavyAtoms>
0

>  <ObservedFormula>
C2 O S

>  <Name>
BETA-MERCAPTOETHANOL

>  <SystematicName>
2-sulfanylethanol

>  <Synonyms>


>  <Type>
NON-POLYMER

>  <Formula>
C2 H6 O S

>  <MolecularWeight>
78.133

>  <ModifiedDate>
2011-06-04

>  <Parent>


>  <OneLetterCode>


>  <SubcomponentList>


>  <AmbiguousFlag>
N

>  <InChI>
InChI=1S/C2H6OS/c3-1-2-4/h3-4H,1-2H2

>  <InChIKey>
DGVVWUTYPXICAM-UHFFFAOYSA-N

>  <SMILES>
C(CS)O

$$$$
3GUI_BME_A_165
  RCSB PDB12061708473D
Coordinates from PDB:3GUI:A:165 Model:1 without hydrogens
  4  3  0  0  0  0            999 V2000
   27.7550  -24.4190   63.4050   C 0  0  0  0  0  0  0  0  0  0  0  0
   26.8820  -25.2930   64.2930   C 0  0  0  0  0  0  0  0  0  0  0  0
   28.1830  -25.2660   62.3500   O 0  0  0  0  0  0  0  0  0  0  0  0
   25.5180  -24.4300   65.0950   S 0  0  0  0  0  0  0  0  0  0  0  0
  1  2  1  0  0  0  0
  1  3  1  0  0  0  0
  2  4  1  0  0  0  0
M  END
>  <InstanceId>
3GUI_BME_A_165

>  <ChemCompId>
BME

>  <PdbId>
3GUI

>  <ChainId>
A

>  <ResidueNumber>
165

>  <InsertionCode>


>  <Model>
1

>  <AltIds>


>  <MissingHeavyAtoms>
0

>  <ObservedFormula>
C2 O S

>  <Name>
BETA-MERCAPTOETHANOL

>  <SystematicName>
2-sulfanylethanol

>  <Synonyms>


>  <Type>
NON-POLYMER

>  <Formula>
C2 H6 O S

>  <MolecularWeight>
78.133

>  <ModifiedDate>
2011-06-04

>  <Parent>


>  <OneLetterCode>


>  <SubcomponentList>


>  <AmbiguousFlag>
N

>  <InChI>
InChI=1S/C2H6OS/c3-1-2-4/h3-4H,1-2H2

>  <InChIKey>
DGVVWUTYPXICAM-UHFFFAOYSA-N

>  <SMILES>
C(CS)O

$$$$
3GUJ_BME_A_165
  RCSB PDB12061708473D
Coordinates from PDB:3GUJ:A:165 Model:1 without hydrogens
  4  3  0  0  0  0            999 V2000
   27.5800  -23.9200   62.3640   C 0  0  0  0  0  0  0  0  0  0  0  0
   27.6100  -23.7420   63.8740   C 0  0  0  0  0  0  0  0  0  0  0  0
   28.1630  -25.1590   62.0460   O 0  0  0  0  0  0  0  0  0  0  0  0
   26.3430  -24.7960   64.6130   S 0  0  0  0  0  0  0  0  0  0  0  0
  1  2  1  0  0  0  0
  1  3  1  0  0  0  0
  2  4  1  0  0  0  0
M  END
>  <InstanceId>
3GUJ_BME_A_165

>  <ChemCompId>
BME

>  <PdbId>
3GUJ

>  <ChainId>
A

>  <ResidueNumber>
165

>  <InsertionCode>


>  <Model>
1

>  <AltIds>


>  <MissingHeavyAtoms>
0

>  <ObservedFormula>
C2 O S

>  <Name>
BETA-MERCAPTOETHANOL

>  <SystematicName>
2-sulfanylethanol

>  <Synonyms>


>  <Type>
NON-POLYMER

>  <Formula>
C2 H6 O S

>  <MolecularWeight>
78.133

>  <ModifiedDate>
2011-06-04

>  <Parent>


>  <OneLetterCode>


>  <SubcomponentList>


>  <AmbiguousFlag>
N

>  <InChI>
InChI=1S/C2H6OS/c3-1-2-4/h3-4H,1-2H2

>  <InChIKey>
DGVVWUTYPXICAM-UHFFFAOYSA-N

>  <SMILES>
C(CS)O

$$$$
3HT7_BME_A_168
  RCSB PDB12061708563D
Coordinates from PDB:3HT7:A:168 Model:1 without hydrogens
  4  3  0  0  0  0            999 V2000
   44.6690  -23.8990    1.1220   C 0  0  0  0  0  0  0  0  0  0  0  0
   45.7080  -23.3490    0.1410   C 0  0  0  0  0  0  0  0  0  0  0  0
   45.1080  -23.6460    2.4570   O 0  0  0  0  0  0  0  0  0  0  0  0
   47.3740  -24.0850    0.3480   S 0  0  0  0  0  0  0  0  0  0  0  0
  1  2  1  0  0  0  0
  1  3  1  0  0  0  0
  2  4  1  0  0  0  0
M  END
>  <InstanceId>
3HT7_BME_A_168

>  <ChemCompId>
BME

>  <PdbId>
3HT7

>  <ChainId>
A

>  <ResidueNumber>
168

>  <InsertionCode>


>  <Model>
1

>  <AltIds>


>  <MissingHeavyAtoms>
0

>  <ObservedFormula>
C2 O S

>  <Name>
BETA-MERCAPTOETHANOL

>  <SystematicName>
2-sulfanylethanol

>  <Synonyms>


>  <Type>
NON-POLYMER

>  <Formula>
C2 H6 O S

>  <MolecularWeight>
78.133

>  <ModifiedDate>
2011-06-04

>  <Parent>


>  <OneLetterCode>


>  <SubcomponentList>


>  <AmbiguousFlag>
N

>  <InChI>
InChI=1S/C2H6OS/c3-1-2-4/h3-4H,1-2H2

>  <InChIKey>
DGVVWUTYPXICAM-UHFFFAOYSA-N

>  <SMILES>
C(CS)O

$$$$
3HT9_BME_A_168
  RCSB PDB12061708563D
Coordinates from PDB:3HT9:A:168 Model:1 without hydrogens
  4  3  0  0  0  0            999 V2000
  -44.3320   24.0820    1.3800   C 0  0  0  0  0  0  0  0  0  0  0  0
  -45.8010   23.7250    1.1310   C 0  0  0  0  0  0  0  0  0  0  0  0
  -44.1100   25.4740    1.1120   O 0  0  0  0  0  0  0  0  0  0  0  0
  -46.3030   23.8460   -0.6330   S 0  0  0  0  0  0  0  0  0  0  0  0
  1  2  1  0  0  0  0
  1  3  1  0  0  0  0
  2  4  1  0  0  0  0
M  END
>  <InstanceId>
3HT9_BME_A_168

>  <ChemCompId>
BME

>  <PdbId>
3HT9

>  <ChainId>
A

>  <ResidueNumber>
168

>  <InsertionCode>


>  <Model>
1

>  <AltIds>


>  <MissingHeavyAtoms>
0

>  <ObservedFormula>
C2 O S

>  <Name>
BETA-MERCAPTOETHANOL

>  <SystematicName>
2-sulfanylethanol

>  <Synonyms>


>  <Type>
NON-POLYMER

>  <Formula>
C2 H6 O S

>  <MolecularWeight>
78.133

>  <ModifiedDate>
2011-06-04

>  <Parent>


>  <OneLetterCode>


>  <SubcomponentList>


>  <AmbiguousFlag>
N

>  <InChI>
InChI=1S/C2H6OS/c3-1-2-4/h3-4H,1-2H2

>  <InChIKey>
DGVVWUTYPXICAM-UHFFFAOYSA-N

>  <SMILES>
C(CS)O

$$$$
3HTB_BME_A_168
  RCSB PDB12061708563D
Coordinates from PDB:3HTB:A:168 Model:1 without hydrogens
  4  3  0  0  0  0            999 V2000
   14.8570  -23.2920  -16.0620   C 0  0  0  0  0  0  0  0  0  0  0  0
   13.4060  -23.7620  -15.8700   C 0  0  0  0  0  0  0  0  0  0  0  0
   15.6110  -24.2100  -16.9040   O 0  0  0  0  0  0  0  0  0  0  0  0
   13.0820  -24.4980  -14.2180   S 0  0  0  0  0  0  0  0  0  0  0  0
  1  2  1  0  0  0  0
  1  3  1  0  0  0  0
  2  4  1  0  0  0  0
M  END
>  <InstanceId>
3HTB_BME_A_168

>  <ChemCompId>
BME

>  <PdbId>
3HTB

>  <ChainId>
A

>  <ResidueNumber>
168

>  <InsertionCode>


>  <Model>
1

>  <AltIds>


>  <MissingHeavyAtoms>
0

>  <ObservedFormula>
C2 O S

>  <Name>
BETA-MERCAPTOETHANOL

>  <SystematicName>
2-sulfanylethanol

>  <Synonyms>


>  <Type>
NON-POLYMER

>  <Formula>
C2 H6 O S

>  <MolecularWeight>
78.133

>  <ModifiedDate>
2011-06-04

>  <Parent>


>  <OneLetterCode>


>  <SubcomponentList>


>  <AmbiguousFlag>
N

>  <InChI>
InChI=1S/C2H6OS/c3-1-2-4/h3-4H,1-2H2

>  <InChIKey>
DGVVWUTYPXICAM-UHFFFAOYSA-N

>  <SMILES>
C(CS)O

$$$$
3HTD_BME_A_167
  RCSB PDB12061708563D
Coordinates from PDB:3HTD:A:167 Model:1 without hydrogens
  4  3  0  0  0  0            999 V2000
  -27.0990    0.1370   15.1520   C 0  0  0  0  0  0  0  0  0  0  0  0
  -27.3820   -0.0180   16.6480   C 0  0  0  0  0  0  0  0  0  0  0  0
  -28.1310    0.9120   14.5360   O 0  0  0  0  0  0  0  0  0  0  0  0
  -27.5420    1.5890   17.5090   S 0  0  0  0  0  0  0  0  0  0  0  0
  1  2  1  0  0  0  0
  1  3  1  0  0  0  0
  2  4  1  0  0  0  0
M  END
>  <InstanceId>
3HTD_BME_A_167

>  <ChemCompId>
BME

>  <PdbId>
3HTD

>  <ChainId>
A

>  <ResidueNumber>
167

>  <InsertionCode>


>  <Model>
1

>  <AltIds>


>  <MissingHeavyAtoms>
0

>  <ObservedFormula>
C2 O S

>  <Name>
BETA-MERCAPTOETHANOL

>  <SystematicName>
2-sulfanylethanol

>  <Synonyms>


>  <Type>
NON-POLYMER

>  <Formula>
C2 H6 O S

>  <MolecularWeight>
78.133

>  <ModifiedDate>
2011-06-04

>  <Parent>


>  <OneLetterCode>


>  <SubcomponentList>


>  <AmbiguousFlag>
N

>  <InChI>
InChI=1S/C2H6OS/c3-1-2-4/h3-4H,1-2H2

>  <InChIKey>
DGVVWUTYPXICAM-UHFFFAOYSA-N

>  <SMILES>
C(CS)O

$$$$
3HTF_BME_A_168
  RCSB PDB12061708563D
Coordinates from PDB:3HTF:A:168 Model:1 without hydrogens
  4  3  0  0  0  0            999 V2000
   28.0450   -1.6980   18.0720   C 0  0  0  0  0  0  0  0  0  0  0  0
   27.1230   -0.4900   18.2270   C 0  0  0  0  0  0  0  0  0  0  0  0
   29.3550   -1.3740   18.5610   O 0  0  0  0  0  0  0  0  0  0  0  0
   27.1570    0.6410   16.7900   S 0  0  0  0  0  0  0  0  0  0  0  0
  1  2  1  0  0  0  0
  1  3  1  0  0  0  0
  2  4  1  0  0  0  0
M  END
>  <InstanceId>
3HTF_BME_A_168

>  <ChemCompId>
BME

>  <PdbId>
3HTF

>  <ChainId>
A

>  <ResidueNumber>
168

>  <InsertionCode>


>  <Model>
1

>  <AltIds>


>  <MissingHeavyAtoms>
0

>  <ObservedFormula>
C2 O S

>  <Name>
BETA-MERCAPTOETHANOL

>  <SystematicName>
2-sulfanylethanol

>  <Synonyms>


>  <Type>
NON-POLYMER

>  <Formula>
C2 H6 O S

>  <MolecularWeight>
78.133

>  <ModifiedDate>
2011-06-04

>  <Parent>


>  <OneLetterCode>


>  <SubcomponentList>


>  <AmbiguousFlag>
N

>  <InChI>
InChI=1S/C2H6OS/c3-1-2-4/h3-4H,1-2H2

>  <InChIKey>
DGVVWUTYPXICAM-UHFFFAOYSA-N

>  <SMILES>
C(CS)O

$$$$
3HTG_BME_A_166
  RCSB PDB12061708563D
Coordinates from PDB:3HTG:A:166 Model:1 without hydrogens
  4  3  0  0  0  0            999 V2000
   33.0710   -0.8200   18.8560   C 0  0  0  0  0  0  0  0  0  0  0  0
   32.7070   -1.3650   17.4720   C 0  0  0  0  0  0  0  0  0  0  0  0
   32.0450   -1.1540   19.7880   O 0  0  0  0  0  0  0  0  0  0  0  0
   33.9930   -1.0200   16.2130   S 0  0  0  0  0  0  0  0  0  0  0  0
  1  2  1  0  0  0  0
  1  3  1  0  0  0  0
  2  4  1  0  0  0  0
M  END
>  <InstanceId>
3HTG_BME_A_166

>  <ChemCompId>
BME

>  <PdbId>
3HTG

>  <ChainId>
A

>  <ResidueNumber>
166

>  <InsertionCode>


>  <Model>
1

>  <AltIds>


>  <MissingHeavyAtoms>
0

>  <ObservedFormula>
C2 O S

>  <Name>
BETA-MERCAPTOETHANOL

>  <SystematicName>
2-sulfanylethanol

>  <Synonyms>


>  <Type>
NON-POLYMER

>  <Formula>
C2 H6 O S

>  <MolecularWeight>
78.133

>  <ModifiedDate>
2011-06-04

>  <Parent>


>  <OneLetterCode>


>  <SubcomponentList>


>  <AmbiguousFlag>
N

>  <InChI>
InChI=1S/C2H6OS/c3-1-2-4/h3-4H,1-2H2

>  <InChIKey>
DGVVWUTYPXICAM-UHFFFAOYSA-N

>  <SMILES>
C(CS)O

$$$$
3HUA_BME_A_166
  RCSB PDB12061708573D
Coordinates from PDB:3HUA:A:166 Model:1 without hydrogens
  4  3  0  0  0  0            999 V2000
  -17.5200   28.5350  -19.0490   C 0  0  0  0  0  0  0  0  0  0  0  0
  -17.6790   27.9140  -17.6620   C 0  0  0  0  0  0  0  0  0  0  0  0
  -17.2330   27.5310  -20.0180   O 0  0  0  0  0  0  0  0  0  0  0  0
  -18.0490   29.1670  -16.3790   S 0  0  0  0  0  0  0  0  0  0  0  0
  1  2  1  0  0  0  0
  1  3  1  0  0  0  0
  2  4  1  0  0  0  0
M  END
>  <InstanceId>
3HUA_BME_A_166

>  <ChemCompId>
BME

>  <PdbId>
3HUA

>  <ChainId>
A

>  <ResidueNumber>
166

>  <InsertionCode>


>  <Model>
1

>  <AltIds>


>  <MissingHeavyAtoms>
0

>  <ObservedFormula>
C2 O S

>  <Name>
BETA-MERCAPTOETHANOL

>  <SystematicName>
2-sulfanylethanol

>  <Synonyms>


>  <Type>
NON-POLYMER

>  <Formula>
C2 H6 O S

>  <MolecularWeight>
78.133

>  <ModifiedDate>
2011-06-04

>  <Parent>


>  <OneLetterCode>


>  <SubcomponentList>


>  <AmbiguousFlag>
N

>  <InChI>
InChI=1S/C2H6OS/c3-1-2-4/h3-4H,1-2H2

>  <InChIKey>
DGVVWUTYPXICAM-UHFFFAOYSA-N

>  <SMILES>
C(CS)O

$$$$
3HUK_BME_A_167
  RCSB PDB12061708573D
Coordinates from PDB:3HUK:A:167 Model:1 without hydrogens
  4  3  0  0  0  0            999 V2000
   26.0260    3.0240    9.8820   C 0  0  0  0  0  0  0  0  0  0  0  0
   27.5300    2.8070    9.8070   C 0  0  0  0  0  0  0  0  0  0  0  0
   25.6550    3.2120   11.2500   O 0  0  0  0  0  0  0  0  0  0  0  0
   27.9680    1.0990   10.2620   S 0  0  0  0  0  0  0  0  0  0  0  0
  1  2  1  0  0  0  0
  1  3  1  0  0  0  0
  2  4  1  0  0  0  0
M  END
>  <InstanceId>
3HUK_BME_A_167

>  <ChemCompId>
BME

>  <PdbId>
3HUK

>  <ChainId>
A

>  <ResidueNumber>
167

>  <InsertionCode>


>  <Model>
1

>  <AltIds>


>  <MissingHeavyAtoms>
0

>  <ObservedFormula>
C2 O S

>  <Name>
BETA-MERCAPTOETHANOL

>  <SystematicName>
2-sulfanylethanol

>  <Synonyms>


>  <Type>
NON-POLYMER

>  <Formula>
C2 H6 O S

>  <MolecularWeight>
78.133

>  <ModifiedDate>
2011-06-04

>  <Parent>


>  <OneLetterCode>


>  <SubcomponentList>


>  <AmbiguousFlag>
N

>  <InChI>
InChI=1S/C2H6OS/c3-1-2-4/h3-4H,1-2H2

>  <InChIKey>
DGVVWUTYPXICAM-UHFFFAOYSA-N

>  <SMILES>
C(CS)O

$$$$
3HUQ_BME_A_165
  RCSB PDB12061708573D
Coordinates from PDB:3HUQ:A:165 Model:1 without hydrogens
  4  3  0  0  0  0            999 V2000
   47.5740  -24.3080   -3.0650   C 0  0  0  0  0  0  0  0  0  0  0  0
   46.3510  -24.7340   -2.2460   C 0  0  0  0  0  0  0  0  0  0  0  0
   47.1370  -23.6720   -4.2760   O 0  0  0  0  0  0  0  0  0  0  0  0
   46.7830  -25.7960   -0.8210   S 0  0  0  0  0  0  0  0  0  0  0  0
  1  2  1  0  0  0  0
  1  3  1  0  0  0  0
  2  4  1  0  0  0  0
M  END
>  <InstanceId>
3HUQ_BME_A_165

>  <ChemCompId>
BME

>  <PdbId>
3HUQ

>  <ChainId>
A

>  <ResidueNumber>
165

>  <InsertionCode>


>  <Model>
1

>  <AltIds>


>  <MissingHeavyAtoms>
0

>  <ObservedFormula>
C2 O S

>  <Name>
BETA-MERCAPTOETHANOL

>  <SystematicName>
2-sulfanylethanol

>  <Synonyms>


>  <Type>
NON-POLYMER

>  <Formula>
C2 H6 O S

>  <MolecularWeight>
78.133

>  <ModifiedDate>
2011-06-04

>  <Parent>


>  <OneLetterCode>


>  <SubcomponentList>


>  <AmbiguousFlag>
N

>  <InChI>
InChI=1S/C2H6OS/c3-1-2-4/h3-4H,1-2H2

>  <InChIKey>
DGVVWUTYPXICAM-UHFFFAOYSA-N

>  <SMILES>
C(CS)O

$$$$
4E97_BME_A_201
  RCSB PDB12061712213D
Coordinates from PDB:4E97:A:201 Model:1 without hydrogens
  4  3  0  0  0  0            999 V2000
    9.7140    0.0780   10.9820   C 0  0  0  0  0  0  0  0  0  0  0  0
    9.0890    0.8180   12.1260   C 0  0  0  0  0  0  0  0  0  0  0  0
    9.7210   -1.2680   11.2990   O 0  0  0  0  0  0  0  0  0  0  0  0
    7.3260    0.7910   11.8420   S 0  0  0  0  0  0  0  0  0  0  0  0
  1  2  1  0  0  0  0
  1  3  1  0  0  0  0
  2  4  1  0  0  0  0
M  END
>  <InstanceId>
4E97_BME_A_201

>  <ChemCompId>
BME

>  <PdbId>
4E97

>  <ChainId>
A

>  <ResidueNumber>
201

>  <InsertionCode>


>  <Model>
1

>  <AltIds>


>  <MissingHeavyAtoms>
0

>  <ObservedFormula>
C2 O S

>  <Name>
BETA-MERCAPTOETHANOL

>  <SystematicName>
2-sulfanylethanol

>  <Synonyms>


>  <Type>
NON-POLYMER

>  <Formula>
C2 H6 O S

>  <MolecularWeight>
78.133

>  <ModifiedDate>
2011-06-04

>  <Parent>


>  <OneLetterCode>


>  <SubcomponentList>


>  <AmbiguousFlag>
N

>  <InChI>
InChI=1S/C2H6OS/c3-1-2-4/h3-4H,1-2H2

>  <InChIKey>
DGVVWUTYPXICAM-UHFFFAOYSA-N

>  <SMILES>
C(CS)O

$$$$
4EKP_BME_A_201
  RCSB PDB12061712243D
Coordinates from PDB:4EKP:A:201 Model:1 without hydrogens
  4  3  0  0  0  0            999 V2000
    4.7090    1.1330    9.8620   C 0  0  0  0  0  0  0  0  0  0  0  0
    4.9620    2.6180    9.6610   C 0  0  0  0  0  0  0  0  0  0  0  0
    5.9290    0.4470    9.7200   O 0  0  0  0  0  0  0  0  0  0  0  0
    5.8870    3.3420   11.0340   S 0  0  0  0  0  0  0  0  0  0  0  0
  1  2  1  0  0  0  0
  1  3  1  0  0  0  0
  2  4  1  0  0  0  0
M  END
>  <InstanceId>
4EKP_BME_A_201

>  <ChemCompId>
BME

>  <PdbId>
4EKP

>  <ChainId>
A

>  <ResidueNumber>
201

>  <InsertionCode>


>  <Model>
1

>  <AltIds>


>  <MissingHeavyAtoms>
0

>  <ObservedFormula>
C2 O S

>  <Name>
BETA-MERCAPTOETHANOL

>  <SystematicName>
2-sulfanylethanol

>  <Synonyms>


>  <Type>
NON-POLYMER

>  <Formula>
C2 H6 O S

>  <MolecularWeight>
78.133

>  <ModifiedDate>
2011-06-04

>  <Parent>


>  <OneLetterCode>


>  <SubcomponentList>


>  <AmbiguousFlag>
N

>  <InChI>
InChI=1S/C2H6OS/c3-1-2-4/h3-4H,1-2H2

>  <InChIKey>
DGVVWUTYPXICAM-UHFFFAOYSA-N

>  <SMILES>
C(CS)O

$$$$
4EKQ_BME_A_201
  RCSB PDB12061712243D
Coordinates from PDB:4EKQ:A:201 Model:1 without hydrogens
  4  3  0  0  0  0            999 V2000
    5.5310    0.8350    9.9870   C 0  0  0  0  0  0  0  0  0  0  0  0
    5.2050    2.3430    9.8110   C 0  0  0  0  0  0  0  0  0  0  0  0
    6.9100    0.5380   10.2110   O 0  0  0  0  0  0  0  0  0  0  0  0
    5.9390    3.4860   11.0650   S 0  0  0  0  0  0  0  0  0  0  0  0
  1  2  1  0  0  0  0
  1  3  1  0  0  0  0
  2  4  1  0  0  0  0
M  END
>  <InstanceId>
4EKQ_BME_A_201

>  <ChemCompId>
BME

>  <PdbId>
4EKQ

>  <ChainId>
A

>  <ResidueNumber>
201

>  <InsertionCode>


>  <Model>
1

>  <AltIds>


>  <MissingHeavyAtoms>
0

>  <ObservedFormula>
C2 O S

>  <Name>
BETA-MERCAPTOETHANOL

>  <SystematicName>
2-sulfanylethanol

>  <Synonyms>


>  <Type>
NON-POLYMER

>  <Formula>
C2 H6 O S

>  <MolecularWeight>
78.133

>  <ModifiedDate>
2011-06-04

>  <Parent>


>  <OneLetterCode>


>  <SubcomponentList>


>  <AmbiguousFlag>
N

>  <InChI>
InChI=1S/C2H6OS/c3-1-2-4/h3-4H,1-2H2

>  <InChIKey>
DGVVWUTYPXICAM-UHFFFAOYSA-N

>  <SMILES>
C(CS)O

$$$$
4EKR_BME_A_201
  RCSB PDB12061712243D
Coordinates from PDB:4EKR:A:201 Model:1 without hydrogens
  4  3  0  0  0  0            999 V2000
    5.8660    0.8620    9.9670   C 0  0  0  0  0  0  0  0  0  0  0  0
    5.1810    2.2440    9.9710   C 0  0  0  0  0  0  0  0  0  0  0  0
    6.6650    0.7060   11.1290   O 0  0  0  0  0  0  0  0  0  0  0  0
    5.9260    3.4590   11.1180   S 0  0  0  0  0  0  0  0  0  0  0  0
  1  2  1  0  0  0  0
  1  3  1  0  0  0  0
  2  4  1  0  0  0  0
M  END
>  <InstanceId>
4EKR_BME_A_201

>  <ChemCompId>
BME

>  <PdbId>
4EKR

>  <ChainId>
A

>  <ResidueNumber>
201

>  <InsertionCode>


>  <Model>
1

>  <AltIds>


>  <MissingHeavyAtoms>
0

>  <ObservedFormula>
C2 O S

>  <Name>
BETA-MERCAPTOETHANOL

>  <SystematicName>
2-sulfanylethanol

>  <Synonyms>


>  <Type>
NON-POLYMER

>  <Formula>
C2 H6 O S

>  <MolecularWeight>
78.133

>  <ModifiedDate>
2011-06-04

>  <Parent>


>  <OneLetterCode>


>  <SubcomponentList>


>  <AmbiguousFlag>
N

>  <InChI>
InChI=1S/C2H6OS/c3-1-2-4/h3-4H,1-2H2

>  <InChIKey>
DGVVWUTYPXICAM-UHFFFAOYSA-N

>  <SMILES>
C(CS)O

$$$$
4EKS_BME_A_201
  RCSB PDB12061712243D
Coordinates from PDB:4EKS:A:201 Model:1 without hydrogens
  4  3  0  0  0  0            999 V2000
    5.0320    0.9700    9.7930   C 0  0  0  0  0  0  0  0  0  0  0  0
    5.1130    2.4800    9.6070   C 0  0  0  0  0  0  0  0  0  0  0  0
    6.3240    0.4170    9.7720   O 0  0  0  0  0  0  0  0  0  0  0  0
    5.8830    3.3390   11.0020   S 0  0  0  0  0  0  0  0  0  0  0  0
  1  2  1  0  0  0  0
  1  3  1  0  0  0  0
  2  4  1  0  0  0  0
M  END
>  <InstanceId>
4EKS_BME_A_201

>  <ChemCompId>
BME

>  <PdbId>
4EKS

>  <ChainId>
A

>  <ResidueNumber>
201

>  <InsertionCode>


>  <Model>
1

>  <AltIds>


>  <MissingHeavyAtoms>
0

>  <ObservedFormula>
C2 O S

>  <Name>
BETA-MERCAPTOETHANOL

>  <SystematicName>
2-sulfanylethanol

>  <Synonyms>


>  <Type>
NON-POLYMER

>  <Formula>
C2 H6 O S

>  <MolecularWeight>
78.133

>  <ModifiedDate>
2011-06-04

>  <Parent>


>  <OneLetterCode>


>  <SubcomponentList>


>  <AmbiguousFlag>
N

>  <InChI>
InChI=1S/C2H6OS/c3-1-2-4/h3-4H,1-2H2

>  <InChIKey>
DGVVWUTYPXICAM-UHFFFAOYSA-N

>  <SMILES>
C(CS)O

$$$$
4I7J_BME_A_201
  RCSB PDB12061712583D
Coordinates from PDB:4I7J:A:201 Model:1 without hydrogens
  4  3  0  0  0  0            999 V2000
    5.7310    1.7860    9.4680   C 0  0  0  0  0  0  0  0  0  0  0  0
    5.2990    3.2600    9.5790   C 0  0  0  0  0  0  0  0  0  0  0  0
    6.6170    1.4290   10.4960   O 0  0  0  0  0  0  0  0  0  0  0  0
    5.9390    4.2080   10.9990   S 0  0  0  0  0  0  0  0  0  0  0  0
  1  2  1  0  0  0  0
  1  3  1  0  0  0  0
  2  4  1  0  0  0  0
M  END
>  <InstanceId>
4I7J_BME_A_201

>  <ChemCompId>
BME

>  <PdbId>
4I7J

>  <ChainId>
A

>  <ResidueNumber>
201

>  <InsertionCode>


>  <Model>
1

>  <AltIds>


>  <MissingHeavyAtoms>
0

>  <ObservedFormula>
C2 O S

>  <Name>
BETA-MERCAPTOETHANOL

>  <SystematicName>
2-sulfanylethanol

>  <Synonyms>


>  <Type>
NON-POLYMER

>  <Formula>
C2 H6 O S

>  <MolecularWeight>
78.133

>  <ModifiedDate>
2011-06-04

>  <Parent>


>  <OneLetterCode>


>  <SubcomponentList>


>  <AmbiguousFlag>
N

>  <InChI>
InChI=1S/C2H6OS/c3-1-2-4/h3-4H,1-2H2

>  <InChIKey>
DGVVWUTYPXICAM-UHFFFAOYSA-N

>  <SMILES>
C(CS)O

$$$$
4I7K_BME_A_201
  RCSB PDB12061712583D
Coordinates from PDB:4I7K:A:201 Model:1 without hydrogens
  4  3  0  0  0  0            999 V2000
    4.8140    2.1790    9.8010   C 0  0  0  0  0  0  0  0  0  0  0  0
    5.0480    3.6830    9.7460   C 0  0  0  0  0  0  0  0  0  0  0  0
    6.0460    1.4960    9.7290   O 0  0  0  0  0  0  0  0  0  0  0  0
    5.9860    4.3350   11.1550   S 0  0  0  0  0  0  0  0  0  0  0  0
  1  2  1  0  0  0  0
  1  3  1  0  0  0  0
  2  4  1  0  0  0  0
M  END
>  <InstanceId>
4I7K_BME_A_201

>  <ChemCompId>
BME

>  <PdbId>
4I7K

>  <ChainId>
A

>  <ResidueNumber>
201

>  <InsertionCode>


>  <Model>
1

>  <AltIds>


>  <MissingHeavyAtoms>
0

>  <ObservedFormula>
C2 O S

>  <Name>
BETA-MERCAPTOETHANOL

>  <SystematicName>
2-sulfanylethanol

>  <Synonyms>


>  <Type>
NON-POLYMER

>  <Formula>
C2 H6 O S

>  <MolecularWeight>
78.133

>  <ModifiedDate>
2011-06-04

>  <Parent>


>  <OneLetterCode>


>  <SubcomponentList>


>  <AmbiguousFlag>
N

>  <InChI>
InChI=1S/C2H6OS/c3-1-2-4/h3-4H,1-2H2

>  <InChIKey>
DGVVWUTYPXICAM-UHFFFAOYSA-N

>  <SMILES>
C(CS)O

$$$$
4I7L_BME_A_201
  RCSB PDB12061712583D
Coordinates from PDB:4I7L:A:201 Model:1 without hydrogens
  4  3  0  0  0  0            999 V2000
    4.9560    2.4850   10.3700   C 0  0  0  0  0  0  0  0  0  0  0  0
    4.9060    3.9340    9.9060   C 0  0  0  0  0  0  0  0  0  0  0  0
    6.0780    1.9110    9.7520   O 0  0  0  0  0  0  0  0  0  0  0  0
    5.9570    4.9670   10.9590   S 0  0  0  0  0  0  0  0  0  0  0  0
  1  2  1  0  0  0  0
  1  3  1  0  0  0  0
  2  4  1  0  0  0  0
M  END
>  <InstanceId>
4I7L_BME_A_201

>  <ChemCompId>
BME

>  <PdbId>
4I7L

>  <ChainId>
A

>  <ResidueNumber>
201

>  <InsertionCode>


>  <Model>
1

>  <AltIds>


>  <MissingHeavyAtoms>
0

>  <ObservedFormula>
C2 O S

>  <Name>
BETA-MERCAPTOETHANOL

>  <SystematicName>
2-sulfanylethanol

>  <Synonyms>


>  <Type>
NON-POLYMER

>  <Formula>
C2 H6 O S

>  <MolecularWeight>
78.133

>  <ModifiedDate>
2011-06-04

>  <Parent>


>  <OneLetterCode>


>  <SubcomponentList>


>  <AmbiguousFlag>
N

>  <InChI>
InChI=1S/C2H6OS/c3-1-2-4/h3-4H,1-2H2

>  <InChIKey>
DGVVWUTYPXICAM-UHFFFAOYSA-N

>  <SMILES>
C(CS)O

$$$$
4I7M_BME_A_201
  RCSB PDB12061712583D
Coordinates from PDB:4I7M:A:201 Model:1 without hydrogens
  4  3  0  0  0  0            999 V2000
    5.5570    0.4090   10.1680   C 0  0  0  0  0  0  0  0  0  0  0  0
    5.0400    1.7780    9.7630   C 0  0  0  0  0  0  0  0  0  0  0  0
    5.1690   -0.5300    9.2210   O 0  0  0  0  0  0  0  0  0  0  0  0
    5.7740    2.9040   10.9860   S 0  0  0  0  0  0  0  0  0  0  0  0
  1  2  1  0  0  0  0
  1  3  1  0  0  0  0
  2  4  1  0  0  0  0
M  END
>  <InstanceId>
4I7M_BME_A_201

>  <ChemCompId>
BME

>  <PdbId>
4I7M

>  <ChainId>
A

>  <ResidueNumber>
201

>  <InsertionCode>


>  <Model>
1

>  <AltIds>


>  <MissingHeavyAtoms>
0

>  <ObservedFormula>
C2 O S

>  <Name>
BETA-MERCAPTOETHANOL

>  <SystematicName>
2-sulfanylethanol

>  <Synonyms>


>  <Type>
NON-POLYMER

>  <Formula>
C2 H6 O S

>  <MolecularWeight>
78.133

>  <ModifiedDate>
2011-06-04

>  <Parent>


>  <OneLetterCode>


>  <SubcomponentList>


>  <AmbiguousFlag>
N

>  <InChI>
InChI=1S/C2H6OS/c3-1-2-4/h3-4H,1-2H2

>  <InChIKey>
DGVVWUTYPXICAM-UHFFFAOYSA-N

>  <SMILES>
C(CS)O

$$$$
4I7N_BME_A_201
  RCSB PDB12061712583D
Coordinates from PDB:4I7N:A:201 Model:1 without hydrogens
  4  3  0  0  0  0            999 V2000
    4.9730    1.0040   10.3320   C 0  0  0  0  0  0  0  0  0  0  0  0
    5.0700    2.4130    9.7860   C 0  0  0  0  0  0  0  0  0  0  0  0
    6.1070    0.3950    9.7810   O 0  0  0  0  0  0  0  0  0  0  0  0
    5.9240    3.4610   10.9900   S 0  0  0  0  0  0  0  0  0  0  0  0
  1  2  1  0  0  0  0
  1  3  1  0  0  0  0
  2  4  1  0  0  0  0
M  END
>  <InstanceId>
4I7N_BME_A_201

>  <ChemCompId>
BME

>  <PdbId>
4I7N

>  <ChainId>
A

>  <ResidueNumber>
201

>  <InsertionCode>


>  <Model>
1

>  <AltIds>


>  <MissingHeavyAtoms>
0

>  <ObservedFormula>
C2 O S

>  <Name>
BETA-MERCAPTOETHANOL

>  <SystematicName>
2-sulfanylethanol

>  <Synonyms>


>  <Type>
NON-POLYMER

>  <Formula>
C2 H6 O S

>  <MolecularWeight>
78.133

>  <ModifiedDate>
2011-06-04

>  <Parent>


>  <OneLetterCode>


>  <SubcomponentList>


>  <AmbiguousFlag>
N

>  <InChI>
InChI=1S/C2H6OS/c3-1-2-4/h3-4H,1-2H2

>  <InChIKey>
DGVVWUTYPXICAM-UHFFFAOYSA-N

>  <SMILES>
C(CS)O

$$$$
4I7O_BME_A_201
  RCSB PDB12061712583D
Coordinates from PDB:4I7O:A:201 Model:1 without hydrogens
  4  3  0  0  0  0            999 V2000
    5.0020    1.2510    9.4690   C 0  0  0  0  0  0  0  0  0  0  0  0
    4.5350    2.3300   10.4410   C 0  0  0  0  0  0  0  0  0  0  0  0
    6.0020    0.4550   10.0640   O 0  0  0  0  0  0  0  0  0  0  0  0
    5.8660    3.4100   11.0260   S 0  0  0  0  0  0  0  0  0  0  0  0
  1  2  1  0  0  0  0
  1  3  1  0  0  0  0
  2  4  1  0  0  0  0
M  END
>  <InstanceId>
4I7O_BME_A_201

>  <ChemCompId>
BME

>  <PdbId>
4I7O

>  <ChainId>
A

>  <ResidueNumber>
201

>  <InsertionCode>


>  <Model>
1

>  <AltIds>


>  <MissingHeavyAtoms>
0

>  <ObservedFormula>
C2 O S

>  <Name>
BETA-MERCAPTOETHANOL

>  <SystematicName>
2-sulfanylethanol

>  <Synonyms>


>  <Type>
NON-POLYMER

>  <Formula>
C2 H6 O S

>  <MolecularWeight>
78.133

>  <ModifiedDate>
2011-06-04

>  <Parent>


>  <OneLetterCode>


>  <SubcomponentList>


>  <AmbiguousFlag>
N

>  <InChI>
InChI=1S/C2H6OS/c3-1-2-4/h3-4H,1-2H2

>  <InChIKey>
DGVVWUTYPXICAM-UHFFFAOYSA-N

>  <SMILES>
C(CS)O

$$$$
4I7P_BME_A_201
  RCSB PDB12061712583D
Coordinates from PDB:4I7P:A:201 Model:1 without hydrogens
  4  3  0  0  0  0            999 V2000
    5.1970    0.9080   10.5690   C 0  0  0  0  0  0  0  0  0  0  0  0
    4.7590    2.3250   10.2400   C 0  0  0  0  0  0  0  0  0  0  0  0
    6.0720    0.5290    9.5370   O 0  0  0  0  0  0  0  0  0  0  0  0
    5.8780    3.5290   10.9960   S 0  0  0  0  0  0  0  0  0  0  0  0
  1  2  1  0  0  0  0
  1  3  1  0  0  0  0
  2  4  1  0  0  0  0
M  END
>  <InstanceId>
4I7P_BME_A_201

>  <ChemCompId>
BME

>  <PdbId>
4I7P

>  <ChainId>
A

>  <ResidueNumber>
201

>  <InsertionCode>


>  <Model>
1

>  <AltIds>


>  <MissingHeavyAtoms>
0

>  <ObservedFormula>
C2 O S

>  <Name>
BETA-MERCAPTOETHANOL

>  <SystematicName>
2-sulfanylethanol

>  <Synonyms>


>  <Type>
NON-POLYMER

>  <Formula>
C2 H6 O S

>  <MolecularWeight>
78.133

>  <ModifiedDate>
2011-06-04

>  <Parent>


>  <OneLetterCode>


>  <SubcomponentList>


>  <AmbiguousFlag>
N

>  <InChI>
InChI=1S/C2H6OS/c3-1-2-4/h3-4H,1-2H2

>  <InChIKey>
DGVVWUTYPXICAM-UHFFFAOYSA-N

>  <SMILES>
C(CS)O

$$$$
4I7Q_BME_A_201
  RCSB PDB12061712583D
Coordinates from PDB:4I7Q:A:201 Model:1 without hydrogens
  4  3  0  0  0  0            999 V2000
    5.3390    0.9300   10.0710   C 0  0  0  0  0  0  0  0  0  0  0  0
    5.1270    2.4130    9.7820   C 0  0  0  0  0  0  0  0  0  0  0  0
    6.6850    0.6010    9.8210   O 0  0  0  0  0  0  0  0  0  0  0  0
    5.9600    3.4720   10.9930   S 0  0  0  0  0  0  0  0  0  0  0  0
  1  2  1  0  0  0  0
  1  3  1  0  0  0  0
  2  4  1  0  0  0  0
M  END
>  <InstanceId>
4I7Q_BME_A_201

>  <ChemCompId>
BME

>  <PdbId>
4I7Q

>  <ChainId>
A

>  <ResidueNumber>
201

>  <InsertionCode>


>  <Model>
1

>  <AltIds>


>  <MissingHeavyAtoms>
0

>  <ObservedFormula>
C2 O S

>  <Name>
BETA-MERCAPTOETHANOL

>  <SystematicName>
2-sulfanylethanol

>  <Synonyms>


>  <Type>
NON-POLYMER

>  <Formula>
C2 H6 O S

>  <MolecularWeight>
78.133

>  <ModifiedDate>
2011-06-04

>  <Parent>


>  <OneLetterCode>


>  <SubcomponentList>


>  <AmbiguousFlag>
N

>  <InChI>
InChI=1S/C2H6OS/c3-1-2-4/h3-4H,1-2H2

>  <InChIKey>
DGVVWUTYPXICAM-UHFFFAOYSA-N

>  <SMILES>
C(CS)O

$$$$
4I7R_BME_A_201
  RCSB PDB12061712583D
Coordinates from PDB:4I7R:A:201 Model:1 without hydrogens
  4  3  0  0  0  0            999 V2000
    4.2180    2.5450    9.4500   C 0  0  0  0  0  0  0  0  0  0  0  0
    5.3420    2.0620   10.3040   C 0  0  0  0  0  0  0  0  0  0  0  0
    3.0850    1.8020    9.7500   O 0  0  0  0  0  0  0  0  0  0  0  0
    5.8450    3.6320   11.1000   S 0  0  0  0  0  0  0  0  0  0  0  0
  1  2  1  0  0  0  0
  1  3  1  0  0  0  0
  2  4  1  0  0  0  0
M  END
>  <InstanceId>
4I7R_BME_A_201

>  <ChemCompId>
BME

>  <PdbId>
4I7R

>  <ChainId>
A

>  <ResidueNumber>
201

>  <InsertionCode>


>  <Model>
1

>  <AltIds>


>  <MissingHeavyAtoms>
0

>  <ObservedFormula>
C2 O S

>  <Name>
BETA-MERCAPTOETHANOL

>  <SystematicName>
2-sulfanylethanol

>  <Synonyms>


>  <Type>
NON-POLYMER

>  <Formula>
C2 H6 O S

>  <MolecularWeight>
78.133

>  <ModifiedDate>
2011-06-04

>  <Parent>


>  <OneLetterCode>


>  <SubcomponentList>


>  <AmbiguousFlag>
N

>  <InChI>
InChI=1S/C2H6OS/c3-1-2-4/h3-4H,1-2H2

>  <InChIKey>
DGVVWUTYPXICAM-UHFFFAOYSA-N

>  <SMILES>
C(CS)O

$$$$
4I7S_BME_A_201
  RCSB PDB12061712583D
Coordinates from PDB:4I7S:A:201 Model:1 without hydrogens
  4  3  0  0  0  0            999 V2000
    4.9510    1.1320    9.9430   C 0  0  0  0  0  0  0  0  0  0  0  0
    5.0820    2.6240    9.6830   C 0  0  0  0  0  0  0  0  0  0  0  0
    6.1750    0.4980    9.6520   O 0  0  0  0  0  0  0  0  0  0  0  0
    6.0270    3.4740   10.9820   S 0  0  0  0  0  0  0  0  0  0  0  0
  1  2  1  0  0  0  0
  1  3  1  0  0  0  0
  2  4  1  0  0  0  0
M  END
>  <InstanceId>
4I7S_BME_A_201

>  <ChemCompId>
BME

>  <PdbId>
4I7S

>  <ChainId>
A

>  <ResidueNumber>
201

>  <InsertionCode>


>  <Model>
1

>  <AltIds>


>  <MissingHeavyAtoms>
0

>  <ObservedFormula>
C2 O S

>  <Name>
BETA-MERCAPTOETHANOL

>  <SystematicName>
2-sulfanylethanol

>  <Synonyms>


>  <Type>
NON-POLYMER

>  <Formula>
C2 H6 O S

>  <MolecularWeight>
78.133

>  <ModifiedDate>
2011-06-04

>  <Parent>


>  <OneLetterCode>


>  <SubcomponentList>


>  <AmbiguousFlag>
N

>  <InChI>
InChI=1S/C2H6OS/c3-1-2-4/h3-4H,1-2H2

>  <InChIKey>
DGVVWUTYPXICAM-UHFFFAOYSA-N

>  <SMILES>
C(CS)O

$$$$
4I7T_BME_A_201
  RCSB PDB12061712583D
Coordinates from PDB:4I7T:A:201 Model:1 without hydrogens
  4  3  0  0  0  0            999 V2000
    5.3120    1.3070    9.9660   C 0  0  0  0  0  0  0  0  0  0  0  0
    5.0440    2.8200    9.7240   C 0  0  0  0  0  0  0  0  0  0  0  0
    6.6630    0.9260   10.1930   O 0  0  0  0  0  0  0  0  0  0  0  0
    5.8500    3.9250   10.9360   S 0  0  0  0  0  0  0  0  0  0  0  0
  1  2  1  0  0  0  0
  1  3  1  0  0  0  0
  2  4  1  0  0  0  0
M  END
>  <InstanceId>
4I7T_BME_A_201

>  <ChemCompId>
BME

>  <PdbId>
4I7T

>  <ChainId>
A

>  <ResidueNumber>
201

>  <InsertionCode>


>  <Model>
1

>  <AltIds>


>  <MissingHeavyAtoms>
0

>  <ObservedFormula>
C2 O S

>  <Name>
BETA-MERCAPTOETHANOL

>  <SystematicName>
2-sulfanylethanol

>  <Synonyms>


>  <Type>
NON-POLYMER

>  <Formula>
C2 H6 O S

>  <MolecularWeight>
78.133

>  <ModifiedDate>
2011-06-04

>  <Parent>


>  <OneLetterCode>


>  <SubcomponentList>


>  <AmbiguousFlag>
N

>  <InChI>
InChI=1S/C2H6OS/c3-1-2-4/h3-4H,1-2H2

>  <InChIKey>
DGVVWUTYPXICAM-UHFFFAOYSA-N

>  <SMILES>
C(CS)O

$$$$
181L_BNZ_A_400
  RCSB PDB12061701563D
Coordinates from PDB:181L:A:400 Model:1 without hydrogens
  6  6  0  0  0  0            999 V2000
   25.9780    5.3270    4.7790   C 0  0  0  0  0  0  0  0  0  0  0  0
   26.3950    5.0740    3.4990   C 0  0  0  0  0  0  0  0  0  0  0  0
   27.3400    5.8600    2.9020   C 0  0  0  0  0  0  0  0  0  0  0  0
   27.8370    6.9210    3.5690   C 0  0  0  0  0  0  0  0  0  0  0  0
   27.4200    7.1960    4.8560   C 0  0  0  0  0  0  0  0  0  0  0  0
   26.4980    6.3790    5.4690   C 0  0  0  0  0  0  0  0  0  0  0  0
  1  2  2  0  0  0  0
  1  6  1  0  0  0  0
  2  3  1  0  0  0  0
  3  4  2  0  0  0  0
  4  5  1  0  0  0  0
  5  6  2  0  0  0  0
M  END
>  <InstanceId>
181L_BNZ_A_400

>  <ChemCompId>
BNZ

>  <PdbId>
181L

>  <ChainId>
A

>  <ResidueNumber>
400

>  <InsertionCode>


>  <Model>
1

>  <AltIds>


>  <MissingHeavyAtoms>
0

>  <ObservedFormula>
C6

>  <Name>
BENZENE

>  <SystematicName>
benzene

>  <Synonyms>


>  <Type>
NON-POLYMER

>  <Formula>
C6 H6

>  <MolecularWeight>
78.112

>  <ModifiedDate>
2011-06-04

>  <Parent>


>  <OneLetterCode>


>  <SubcomponentList>


>  <AmbiguousFlag>
N

>  <InChI>
InChI=1S/C6H6/c1-2-4-6-5-3-1/h1-6H

>  <InChIKey>
UHOVQNZJYSORNB-UHFFFAOYSA-N

>  <SMILES>
c1ccccc1

$$$$
1L83_BNZ_A_400
  RCSB PDB12061703093D
Coordinates from PDB:1L83:A:400 Model:1 without hydrogens
  6  6  0  0  0  0            999 V2000
   26.4080    5.0860    3.5120   C 0  0  0  0  0  0  0  0  0  0  0  0
   27.3850    5.8810    2.9280   C 0  0  0  0  0  0  0  0  0  0  0  0
   27.8910    6.9730    3.6200   C 0  0  0  0  0  0  0  0  0  0  0  0
   27.4410    7.2400    4.9130   C 0  0  0  0  0  0  0  0  0  0  0  0
   26.4900    6.4180    5.5200   C 0  0  0  0  0  0  0  0  0  0  0  0
   25.9570    5.3520    4.8050   C 0  0  0  0  0  0  0  0  0  0  0  0
  1  2  2  0  0  0  0
  1  6  1  0  0  0  0
  2  3  1  0  0  0  0
  3  4  2  0  0  0  0
  4  5  1  0  0  0  0
  5  6  2  0  0  0  0
M  END
>  <InstanceId>
1L83_BNZ_A_400

>  <ChemCompId>
BNZ

>  <PdbId>
1L83

>  <ChainId>
A

>  <ResidueNumber>
400

>  <InsertionCode>


>  <Model>
1

>  <AltIds>


>  <MissingHeavyAtoms>
0

>  <ObservedFormula>
C6

>  <Name>
BENZENE

>  <SystematicName>
benzene

>  <Synonyms>


>  <Type>
NON-POLYMER

>  <Formula>
C6 H6

>  <MolecularWeight>
78.112

>  <ModifiedDate>
2011-06-04

>  <Parent>


>  <OneLetterCode>


>  <SubcomponentList>


>  <AmbiguousFlag>
N

>  <InChI>
InChI=1S/C6H6/c1-2-4-6-5-3-1/h1-6H

>  <InChIKey>
UHOVQNZJYSORNB-UHFFFAOYSA-N

>  <SMILES>
c1ccccc1

$$$$
1L84_BNZ_A_400
  RCSB PDB12061703093D
Coordinates from PDB:1L84:A:400 Model:1 without hydrogens
  6  6  0  0  0  0            999 V2000
   26.4360    4.8310    3.3110   C 0  0  0  0  0  0  0  0  0  0  0  0
   27.3810    5.7080    2.7720   C 0  0  0  0  0  0  0  0  0  0  0  0
   27.8090    6.8260    3.5310   C 0  0  0  0  0  0  0  0  0  0  0  0
   27.3300    7.0470    4.8330   C 0  0  0  0  0  0  0  0  0  0  0  0
   26.3890    6.1510    5.3870   C 0  0  0  0  0  0  0  0  0  0  0  0
   25.9220    5.0780    4.6110   C 0  0  0  0  0  0  0  0  0  0  0  0
  1  2  2  0  0  0  0
  1  6  1  0  0  0  0
  2  3  1  0  0  0  0
  3  4  2  0  0  0  0
  4  5  1  0  0  0  0
  5  6  2  0  0  0  0
M  END
>  <InstanceId>
1L84_BNZ_A_400

>  <ChemCompId>
BNZ

>  <PdbId>
1L84

>  <ChainId>
A

>  <ResidueNumber>
400

>  <InsertionCode>


>  <Model>
1

>  <AltIds>


>  <MissingHeavyAtoms>
0

>  <ObservedFormula>
C6

>  <Name>
BENZENE

>  <SystematicName>
benzene

>  <Synonyms>


>  <Type>
NON-POLYMER

>  <Formula>
C6 H6

>  <MolecularWeight>
78.112

>  <ModifiedDate>
2011-06-04

>  <Parent>


>  <OneLetterCode>


>  <SubcomponentList>


>  <AmbiguousFlag>
N

>  <InChI>
InChI=1S/C6H6/c1-2-4-6-5-3-1/h1-6H

>  <InChIKey>
UHOVQNZJYSORNB-UHFFFAOYSA-N

>  <SMILES>
c1ccccc1

$$$$
3DMX_BNZ_A_900
  RCSB PDB12061708203D
Coordinates from PDB:3DMX:A:900 Model:1 without hydrogens
  6  6  0  0  0  0            999 V2000
   26.6260    5.3300    3.0740   C 0  0  0  0  0  0  0  0  0  0  0  0
   25.8160    5.0620    4.1800   C 0  0  0  0  0  0  0  0  0  0  0  0
   25.8130    5.9240    5.2790   C 0  0  0  0  0  0  0  0  0  0  0  0
   26.6170    7.0650    5.2700   C 0  0  0  0  0  0  0  0  0  0  0  0
   27.4290    7.3290    4.1660   C 0  0  0  0  0  0  0  0  0  0  0  0
   27.4320    6.4680    3.0660   C 0  0  0  0  0  0  0  0  0  0  0  0
  1  2  2  0  0  0  0
  1  6  1  0  0  0  0
  2  3  1  0  0  0  0
  3  4  2  0  0  0  0
  4  5  1  0  0  0  0
  5  6  2  0  0  0  0
M  END
>  <InstanceId>
3DMX_BNZ_A_900

>  <ChemCompId>
BNZ

>  <PdbId>
3DMX

>  <ChainId>
A

>  <ResidueNumber>
900

>  <InsertionCode>


>  <Model>
1

>  <AltIds>


>  <MissingHeavyAtoms>
0

>  <ObservedFormula>
C6

>  <Name>
BENZENE

>  <SystematicName>
benzene

>  <Synonyms>


>  <Type>
NON-POLYMER

>  <Formula>
C6 H6

>  <MolecularWeight>
78.112

>  <ModifiedDate>
2011-06-04

>  <Parent>


>  <OneLetterCode>


>  <SubcomponentList>


>  <AmbiguousFlag>
N

>  <InChI>
InChI=1S/C6H6/c1-2-4-6-5-3-1/h1-6H

>  <InChIKey>
UHOVQNZJYSORNB-UHFFFAOYSA-N

>  <SMILES>
c1ccccc1

$$$$
3GUJ_BNZ_A_501
  RCSB PDB12061708473D
Coordinates from PDB:3GUJ:A:501 Model:1 without hydrogens
  6  6  0  0  0  0            999 V2000
   21.5720  -11.0220   56.6480   C 0  0  0  0  0  0  0  0  0  0  0  0
   22.4380  -12.0080   56.1700   C 0  0  0  0  0  0  0  0  0  0  0  0
   23.6660  -12.2210   56.8020   C 0  0  0  0  0  0  0  0  0  0  0  0
   24.0400  -11.4530   57.8980   C 0  0  0  0  0  0  0  0  0  0  0  0
   23.1780  -10.4680   58.3790   C 0  0  0  0  0  0  0  0  0  0  0  0
   21.9470  -10.2530   57.7510   C 0  0  0  0  0  0  0  0  0  0  0  0
  1  2  2  0  0  0  0
  1  6  1  0  0  0  0
  2  3  1  0  0  0  0
  3  4  2  0  0  0  0
  4  5  1  0  0  0  0
  5  6  2  0  0  0  0
M  END
>  <InstanceId>
3GUJ_BNZ_A_501

>  <ChemCompId>
BNZ

>  <PdbId>
3GUJ

>  <ChainId>
A

>  <ResidueNumber>
501

>  <InsertionCode>


>  <Model>
1

>  <AltIds>


>  <MissingHeavyAtoms>
0

>  <ObservedFormula>
C6

>  <Name>
BENZENE

>  <SystematicName>
benzene

>  <Synonyms>


>  <Type>
NON-POLYMER

>  <Formula>
C6 H6

>  <MolecularWeight>
78.112

>  <ModifiedDate>
2011-06-04

>  <Parent>


>  <OneLetterCode>


>  <SubcomponentList>


>  <AmbiguousFlag>
N

>  <InChI>
InChI=1S/C6H6/c1-2-4-6-5-3-1/h1-6H

>  <InChIKey>
UHOVQNZJYSORNB-UHFFFAOYSA-N

>  <SMILES>
c1ccccc1

$$$$
3HH4_BNZ_A_168
  RCSB PDB12061708533D
Coordinates from PDB:3HH4:A:168 Model:1 without hydrogens
  6  6  0  0  0  0            999 V2000
   25.8850    5.0160    4.1890   C 0  0  0  0  0  0  0  0  0  0  0  0
   25.8680    5.8480    5.3050   C 0  0  0  0  0  0  0  0  0  0  0  0
   26.6710    6.9920    5.3180   C 0  0  0  0  0  0  0  0  0  0  0  0
   27.4790    7.2940    4.2170   C 0  0  0  0  0  0  0  0  0  0  0  0
   27.4890    6.4650    3.1030   C 0  0  0  0  0  0  0  0  0  0  0  0
   26.6930    5.3210    3.0940   C 0  0  0  0  0  0  0  0  0  0  0  0
  1  2  2  0  0  0  0
  1  6  1  0  0  0  0
  2  3  1  0  0  0  0
  3  4  2  0  0  0  0
  4  5  1  0  0  0  0
  5  6  2  0  0  0  0
M  END
>  <InstanceId>
3HH4_BNZ_A_168

>  <ChemCompId>
BNZ

>  <PdbId>
3HH4

>  <ChainId>
A

>  <ResidueNumber>
168

>  <InsertionCode>


>  <Model>
1

>  <AltIds>


>  <MissingHeavyAtoms>
0

>  <ObservedFormula>
C6

>  <Name>
BENZENE

>  <SystematicName>
benzene

>  <Synonyms>


>  <Type>
NON-POLYMER

>  <Formula>
C6 H6

>  <MolecularWeight>
78.112

>  <ModifiedDate>
2011-06-04

>  <Parent>


>  <OneLetterCode>


>  <SubcomponentList>


>  <AmbiguousFlag>
N

>  <InChI>
InChI=1S/C6H6/c1-2-4-6-5-3-1/h1-6H

>  <InChIKey>
UHOVQNZJYSORNB-UHFFFAOYSA-N

>  <SMILES>
c1ccccc1

$$$$
4I7J_BNZ_A_202
  RCSB PDB12061712583D
Coordinates from PDB:4I7J:A:202 Model:1 without hydrogens
  6  6  0  0  0  0            999 V2000
    4.0520    8.5640    0.2300   C 0  0  0  0  0  0  0  0  0  0  0  0
    4.5410    9.7730    0.7260   C 0  0  0  0  0  0  0  0  0  0  0  0
    3.7690   10.6100    1.5330   C 0  0  0  0  0  0  0  0  0  0  0  0
    2.4620   10.1550    1.8410   C 0  0  0  0  0  0  0  0  0  0  0  0
    1.9800    8.9430    1.3640   C 0  0  0  0  0  0  0  0  0  0  0  0
    2.7750    8.1380    0.5630   C 0  0  0  0  0  0  0  0  0  0  0  0
  1  2  2  0  0  0  0
  1  6  1  0  0  0  0
  2  3  1  0  0  0  0
  3  4  2  0  0  0  0
  4  5  1  0  0  0  0
  5  6  2  0  0  0  0
M  END
>  <InstanceId>
4I7J_BNZ_A_202

>  <ChemCompId>
BNZ

>  <PdbId>
4I7J

>  <ChainId>
A

>  <ResidueNumber>
202

>  <InsertionCode>


>  <Model>
1

>  <AltIds>


>  <MissingHeavyAtoms>
0

>  <ObservedFormula>
C6

>  <Name>
BENZENE

>  <SystematicName>
benzene

>  <Synonyms>


>  <Type>
NON-POLYMER

>  <Formula>
C6 H6

>  <MolecularWeight>
78.112

>  <ModifiedDate>
2011-06-04

>  <Parent>


>  <OneLetterCode>


>  <SubcomponentList>


>  <AmbiguousFlag>
N

>  <InChI>
InChI=1S/C6H6/c1-2-4-6-5-3-1/h1-6H

>  <InChIKey>
UHOVQNZJYSORNB-UHFFFAOYSA-N

>  <SMILES>
c1ccccc1

$$$$
4W52_BNZ_A_200
  RCSB PDB12061715543D
Coordinates from PDB:4W52:A:200 Model:1 without hydrogens
  6  6  0  0  0  0            999 V2000
  -32.9690    6.1960    2.8770   C 0  0  0  0  0  0  0  0  0  0  0  0
  -32.9450    7.0460    3.9730   C 0  0  0  0  0  0  0  0  0  0  0  0
  -33.7190    6.7980    5.1130   C 0  0  0  0  0  0  0  0  0  0  0  0
  -34.5400    5.6800    5.1430   C 0  0  0  0  0  0  0  0  0  0  0  0
  -34.5450    4.8250    4.0440   C 0  0  0  0  0  0  0  0  0  0  0  0
  -33.7870    5.0690    2.9150   C 0  0  0  0  0  0  0  0  0  0  0  0
  1  2  2  0  0  0  0
  1  6  1  0  0  0  0
  2  3  1  0  0  0  0
  3  4  2  0  0  0  0
  4  5  1  0  0  0  0
  5  6  2  0  0  0  0
M  END
>  <InstanceId>
4W52_BNZ_A_200

>  <ChemCompId>
BNZ

>  <PdbId>
4W52

>  <ChainId>
A

>  <ResidueNumber>
200

>  <InsertionCode>


>  <Model>
1

>  <AltIds>


>  <MissingHeavyAtoms>
0

>  <ObservedFormula>
C6

>  <Name>
BENZENE

>  <SystematicName>
benzene

>  <Synonyms>


>  <Type>
NON-POLYMER

>  <Formula>
C6 H6

>  <MolecularWeight>
78.112

>  <ModifiedDate>
2011-06-04

>  <Parent>


>  <OneLetterCode>


>  <SubcomponentList>


>  <AmbiguousFlag>
N

>  <InChI>
InChI=1S/C6H6/c1-2-4-6-5-3-1/h1-6H

>  <InChIKey>
UHOVQNZJYSORNB-UHFFFAOYSA-N

>  <SMILES>
c1ccccc1

$$$$
5JWT_BNZ_A_201
  RCSB PDB12061718313D
Coordinates from PDB:5JWT:A:201 Model:1 without hydrogens
  6  6  0  0  0  0            999 V2000
  -33.5700    6.9520    5.2440   C 0  0  0  0  0  0  0  0  0  0  0  0
  -34.4020    5.8500    5.2060   C 0  0  0  0  0  0  0  0  0  0  0  0
  -34.4430    5.0540    4.0820   C 0  0  0  0  0  0  0  0  0  0  0  0
  -33.6660    5.3590    2.9810   C 0  0  0  0  0  0  0  0  0  0  0  0
  -32.8220    6.4590    3.0120   C 0  0  0  0  0  0  0  0  0  0  0  0
  -32.7880    7.2590    4.1390   C 0  0  0  0  0  0  0  0  0  0  0  0
  1  2  2  0  0  0  0
  1  6  1  0  0  0  0
  2  3  1  0  0  0  0
  3  4  2  0  0  0  0
  4  5  1  0  0  0  0
  5  6  2  0  0  0  0
M  END
>  <InstanceId>
5JWT_BNZ_A_201

>  <ChemCompId>
BNZ

>  <PdbId>
5JWT

>  <ChainId>
A

>  <ResidueNumber>
201

>  <InsertionCode>


>  <Model>
1

>  <AltIds>


>  <MissingHeavyAtoms>
0

>  <ObservedFormula>
C6

>  <Name>
BENZENE

>  <SystematicName>
benzene

>  <Synonyms>


>  <Type>
NON-POLYMER

>  <Formula>
C6 H6

>  <MolecularWeight>
78.112

>  <ModifiedDate>
2011-06-04

>  <Parent>


>  <OneLetterCode>


>  <SubcomponentList>


>  <AmbiguousFlag>
N

>  <InChI>
InChI=1S/C6H6/c1-2-4-6-5-3-1/h1-6H

>  <InChIKey>
UHOVQNZJYSORNB-UHFFFAOYSA-N

>  <SMILES>
c1ccccc1

$$$$
182L_BZF_A_401
  RCSB PDB12061701563D
Coordinates from PDB:182L:A:401 Model:1 without hydrogens
  9 10  0  0  0  0            999 V2000
   27.6840    6.1560    2.3190   O 0  0  0  0  0  0  0  0  0  0  0  0
   28.4310    7.3150    2.4070   C 0  0  0  0  0  0  0  0  0  0  0  0
   28.2590    7.9040    3.6080   C 0  0  0  0  0  0  0  0  0  0  0  0
   27.4200    7.0120    4.3480   C 0  0  0  0  0  0  0  0  0  0  0  0
   26.9090    7.0380    5.6140   C 0  0  0  0  0  0  0  0  0  0  0  0
   26.0640    6.0480    6.0060   C 0  0  0  0  0  0  0  0  0  0  0  0
   25.7060    5.0210    5.1570   C 0  0  0  0  0  0  0  0  0  0  0  0
   26.1910    4.9500    3.8930   C 0  0  0  0  0  0  0  0  0  0  0  0
   27.0710    5.9320    3.5060   C 0  0  0  0  0  0  0  0  0  0  0  0
  1  2  1  0  0  0  0
  1  9  1  0  0  0  0
  2  3  2  0  0  0  0
  3  4  1  0  0  0  0
  4  5  2  0  0  0  0
  4  9  1  0  0  0  0
  5  6  1  0  0  0  0
  6  7  2  0  0  0  0
  7  8  1  0  0  0  0
  8  9  2  0  0  0  0
M  END
>  <InstanceId>
182L_BZF_A_401

>  <ChemCompId>
BZF

>  <PdbId>
182L

>  <ChainId>
A

>  <ResidueNumber>
401

>  <InsertionCode>


>  <Model>
1

>  <AltIds>


>  <MissingHeavyAtoms>
0

>  <ObservedFormula>
C8 O

>  <Name>
BENZOFURAN

>  <SystematicName>
1-benzofuran

>  <Synonyms>


>  <Type>
NON-POLYMER

>  <Formula>
C8 H6 O

>  <MolecularWeight>
118.133

>  <ModifiedDate>
2011-06-04

>  <Parent>


>  <OneLetterCode>


>  <SubcomponentList>


>  <AmbiguousFlag>
N

>  <InChI>
InChI=1S/C8H6O/c1-2-4-8-7(3-1)5-6-9-8/h1-6H

>  <InChIKey>
IANQTJSKSUMEQM-UHFFFAOYSA-N

>  <SMILES>
c1ccc2c(c1)cco2

$$$$
3GUK_CA_A_165
  RCSB PDB12061708473D
Coordinates from PDB:3GUK:A:165 Model:1 without hydrogens
  1  0  0  0  0  0            999 V2000
   14.5530    9.8610   -6.4210  Ca 0  2  0  0  0  0  0  0  0  0  0  0
M  CHG  1   1   2
M  END
>  <InstanceId>
3GUK_CA_A_165

>  <ChemCompId>
CA

>  <PdbId>
3GUK

>  <ChainId>
A

>  <ResidueNumber>
165

>  <InsertionCode>


>  <Model>
1

>  <AltIds>


>  <MissingHeavyAtoms>
0

>  <ObservedFormula>
Ca

>  <Name>
CALCIUM ION

>  <SystematicName>
calcium(+2) cation

>  <Synonyms>


>  <Type>
NON-POLYMER

>  <Formula>
Ca

>  <MolecularWeight>
40.078

>  <ModifiedDate>
2011-06-04

>  <Parent>


>  <OneLetterCode>


>  <SubcomponentList>


>  <AmbiguousFlag>
N

>  <InChI>
InChI=1S/Ca/q+2

>  <InChIKey>
BHPQYMZQTOCNFJ-UHFFFAOYSA-N

>  <SMILES>
[Ca+2]

$$$$
3GUL_CA_B_165
  RCSB PDB12061708473D
Coordinates from PDB:3GUL:B:165 Model:1 without hydrogens
  1  0  0  0  0  0            999 V2000
   14.7710   10.2840   -5.5970  Ca 0  2  0  0  0  0  0  0  0  0  0  0
M  CHG  1   1   2
M  END
>  <InstanceId>
3GUL_CA_B_165

>  <ChemCompId>
CA

>  <PdbId>
3GUL

>  <ChainId>
B

>  <ResidueNumber>
165

>  <InsertionCode>


>  <Model>
1

>  <AltIds>


>  <MissingHeavyAtoms>
0

>  <ObservedFormula>
Ca

>  <Name>
CALCIUM ION

>  <SystematicName>
calcium(+2) cation

>  <Synonyms>


>  <Type>
NON-POLYMER

>  <Formula>
Ca

>  <MolecularWeight>
40.078

>  <ModifiedDate>
2011-06-04

>  <Parent>


>  <OneLetterCode>


>  <SubcomponentList>


>  <AmbiguousFlag>
N

>  <InChI>
InChI=1S/Ca/q+2

>  <InChIKey>
BHPQYMZQTOCNFJ-UHFFFAOYSA-N

>  <SMILES>
[Ca+2]

$$$$
3GUM_CA_B_165
  RCSB PDB12061708473D
Coordinates from PDB:3GUM:B:165 Model:1 without hydrogens
  1  0  0  0  0  0            999 V2000
   14.8990   10.4350   -5.9910  Ca 0  2  0  0  0  0  0  0  0  0  0  0
M  CHG  1   1   2
M  END
>  <InstanceId>
3GUM_CA_B_165

>  <ChemCompId>
CA

>  <PdbId>
3GUM

>  <ChainId>
B

>  <ResidueNumber>
165

>  <InsertionCode>


>  <Model>
1

>  <AltIds>


>  <MissingHeavyAtoms>
0

>  <ObservedFormula>
Ca

>  <Name>
CALCIUM ION

>  <SystematicName>
calcium(+2) cation

>  <Synonyms>


>  <Type>
NON-POLYMER

>  <Formula>
Ca

>  <MolecularWeight>
40.078

>  <ModifiedDate>
2011-06-04

>  <Parent>


>  <OneLetterCode>


>  <SubcomponentList>


>  <AmbiguousFlag>
N

>  <InChI>
InChI=1S/Ca/q+2

>  <InChIKey>
BHPQYMZQTOCNFJ-UHFFFAOYSA-N

>  <SMILES>
[Ca+2]

$$$$
3GUN_CA_A_165
  RCSB PDB12061708473D
Coordinates from PDB:3GUN:A:165 Model:1 without hydrogens
  1  0  0  0  0  0            999 V2000
   14.4840    9.7670   -6.0680  Ca 0  2  0  0  0  0  0  0  0  0  0  0
M  CHG  1   1   2
M  END
>  <InstanceId>
3GUN_CA_A_165

>  <ChemCompId>
CA

>  <PdbId>
3GUN

>  <ChainId>
A

>  <ResidueNumber>
165

>  <InsertionCode>


>  <Model>
1

>  <AltIds>


>  <MissingHeavyAtoms>
0

>  <ObservedFormula>
Ca

>  <Name>
CALCIUM ION

>  <SystematicName>
calcium(+2) cation

>  <Synonyms>


>  <Type>
NON-POLYMER

>  <Formula>
Ca

>  <MolecularWeight>
40.078

>  <ModifiedDate>
2011-06-04

>  <Parent>


>  <OneLetterCode>


>  <SubcomponentList>


>  <AmbiguousFlag>
N

>  <InChI>
InChI=1S/Ca/q+2

>  <InChIKey>
BHPQYMZQTOCNFJ-UHFFFAOYSA-N

>  <SMILES>
[Ca+2]

$$$$
3GUO_CA_A_166
  RCSB PDB12061708473D
Coordinates from PDB:3GUO:A:166 Model:1 without hydrogens
  1  0  0  0  0  0            999 V2000
   14.5060   10.2480   -6.1290  Ca 0  2  0  0  0  0  0  0  0  0  0  0
M  CHG  1   1   2
M  END
>  <InstanceId>
3GUO_CA_A_166

>  <ChemCompId>
CA

>  <PdbId>
3GUO

>  <ChainId>
A

>  <ResidueNumber>
166

>  <InsertionCode>


>  <Model>
1

>  <AltIds>


>  <MissingHeavyAtoms>
0

>  <ObservedFormula>
Ca

>  <Name>
CALCIUM ION

>  <SystematicName>
calcium(+2) cation

>  <Synonyms>


>  <Type>
NON-POLYMER

>  <Formula>
Ca

>  <MolecularWeight>
40.078

>  <ModifiedDate>
2011-06-04

>  <Parent>


>  <OneLetterCode>


>  <SubcomponentList>


>  <AmbiguousFlag>
N

>  <InChI>
InChI=1S/Ca/q+2

>  <InChIKey>
BHPQYMZQTOCNFJ-UHFFFAOYSA-N

>  <SMILES>
[Ca+2]

$$$$
1XEP_CAQ_A_606
  RCSB PDB12061704373D
Coordinates from PDB:1XEP:A:606 Model:1 without hydrogens
  8  8  0  0  0  0            999 V2000
   25.6800    5.8640    5.3380   C 0  0  0  0  0  0  0  0  0  0  0  0
   26.2990    7.1330    5.5040   C 0  0  0  0  0  0  0  0  0  0  0  0
   27.2690    7.5670    4.5550   C 0  0  0  0  0  0  0  0  0  0  0  0
   28.0570    8.6500    4.8220   O 0  0  0  0  0  0  0  0  0  0  0  0
   27.4300    6.8580    3.3320   C 0  0  0  0  0  0  0  0  0  0  0  0
   28.2610    7.3480    2.3750   O 0  0  0  0  0  0  0  0  0  0  0  0
   26.7320    5.6370    3.1150   C 0  0  0  0  0  0  0  0  0  0  0  0
   25.8450    5.1460    4.1150   C 0  0  0  0  0  0  0  0  0  0  0  0
  1  2  2  0  0  0  0
  1  8  1  0  0  0  0
  2  3  1  0  0  0  0
  3  4  1  0  0  0  0
  3  5  2  0  0  0  0
  5  6  1  0  0  0  0
  5  7  1  0  0  0  0
  7  8  2  0  0  0  0
M  END
>  <InstanceId>
1XEP_CAQ_A_606

>  <ChemCompId>
CAQ

>  <PdbId>
1XEP

>  <ChainId>
A

>  <ResidueNumber>
606

>  <InsertionCode>


>  <Model>
1

>  <AltIds>


>  <MissingHeavyAtoms>
0

>  <ObservedFormula>
C6 O2

>  <Name>
CATECHOL

>  <SystematicName>
benzene-1,2-diol

>  <Synonyms>
1,2-DIHYDROXYBENZENE

>  <Type>
NON-POLYMER

>  <Formula>
C6 H6 O2

>  <MolecularWeight>
110.111

>  <ModifiedDate>
2011-06-04

>  <Parent>


>  <OneLetterCode>


>  <SubcomponentList>


>  <AmbiguousFlag>
N

>  <InChI>
InChI=1S/C6H6O2/c7-5-3-1-2-4-6(5)8/h1-4,7-8H

>  <InChIKey>
YCIMNLLNPGFGHC-UHFFFAOYSA-N

>  <SMILES>
c1ccc(c(c1)O)O

$$$$
181L_CL_A_173
  RCSB PDB12061701563D
Coordinates from PDB:181L:A:173 Model:1 without hydrogens
  1  0  0  0  0  0            999 V2000
   43.1410   16.4470    1.7690  Cl 0  5  0  0  0  0  0  0  0  0  0  0
M  CHG  1   1  -1
M  END
>  <InstanceId>
181L_CL_A_173

>  <ChemCompId>
CL

>  <PdbId>
181L

>  <ChainId>
A

>  <ResidueNumber>
173

>  <InsertionCode>


>  <Model>
1

>  <AltIds>


>  <MissingHeavyAtoms>
0

>  <ObservedFormula>
Cl

>  <Name>
CHLORIDE ION

>  <SystematicName>
chloride

>  <Synonyms>


>  <Type>
NON-POLYMER

>  <Formula>
Cl

>  <MolecularWeight>
35.453

>  <ModifiedDate>
2011-06-04

>  <Parent>


>  <OneLetterCode>


>  <SubcomponentList>


>  <AmbiguousFlag>
N

>  <InChI>
InChI=1S/ClH/h1H/p-1

>  <InChIKey>
VEXZGXHMUGYJMC-UHFFFAOYSA-M

>  <SMILES>
[Cl-]

$$$$
182L_CL_A_173
  RCSB PDB12061701563D
Coordinates from PDB:182L:A:173 Model:1 without hydrogens
  1  0  0  0  0  0            999 V2000
   43.1220   16.4350    1.9300  Cl 0  5  0  0  0  0  0  0  0  0  0  0
M  CHG  1   1  -1
M  END
>  <InstanceId>
182L_CL_A_173

>  <ChemCompId>
CL

>  <PdbId>
182L

>  <ChainId>
A

>  <ResidueNumber>
173

>  <InsertionCode>


>  <Model>
1

>  <AltIds>


>  <MissingHeavyAtoms>
0

>  <ObservedFormula>
Cl

>  <Name>
CHLORIDE ION

>  <SystematicName>
chloride

>  <Synonyms>


>  <Type>
NON-POLYMER

>  <Formula>
Cl

>  <MolecularWeight>
35.453

>  <ModifiedDate>
2011-06-04

>  <Parent>


>  <OneLetterCode>


>  <SubcomponentList>


>  <AmbiguousFlag>
N

>  <InChI>
InChI=1S/ClH/h1H/p-1

>  <InChIKey>
VEXZGXHMUGYJMC-UHFFFAOYSA-M

>  <SMILES>
[Cl-]

$$$$
183L_CL_A_173
  RCSB PDB12061701563D
Coordinates from PDB:183L:A:173 Model:1 without hydrogens
  1  0  0  0  0  0            999 V2000
   43.1020   16.4520    1.8260  Cl 0  5  0  0  0  0  0  0  0  0  0  0
M  CHG  1   1  -1
M  END
>  <InstanceId>
183L_CL_A_173

>  <ChemCompId>
CL

>  <PdbId>
183L

>  <ChainId>
A

>  <ResidueNumber>
173

>  <InsertionCode>


>  <Model>
1

>  <AltIds>


>  <MissingHeavyAtoms>
0

>  <ObservedFormula>
Cl

>  <Name>
CHLORIDE ION

>  <SystematicName>
chloride

>  <Synonyms>


>  <Type>
NON-POLYMER

>  <Formula>
Cl

>  <MolecularWeight>
35.453

>  <ModifiedDate>
2011-06-04

>  <Parent>


>  <OneLetterCode>


>  <SubcomponentList>


>  <AmbiguousFlag>
N

>  <InChI>
InChI=1S/ClH/h1H/p-1

>  <InChIKey>
VEXZGXHMUGYJMC-UHFFFAOYSA-M

>  <SMILES>
[Cl-]

$$$$
184L_CL_A_173
  RCSB PDB12061701563D
Coordinates from PDB:184L:A:173 Model:1 without hydrogens
  1  0  0  0  0  0            999 V2000
   43.1730   16.4190    1.8260  Cl 0  5  0  0  0  0  0  0  0  0  0  0
M  CHG  1   1  -1
M  END
>  <InstanceId>
184L_CL_A_173

>  <ChemCompId>
CL

>  <PdbId>
184L

>  <ChainId>
A

>  <ResidueNumber>
173

>  <InsertionCode>


>  <Model>
1

>  <AltIds>


>  <MissingHeavyAtoms>
0

>  <ObservedFormula>
Cl

>  <Name>
CHLORIDE ION

>  <SystematicName>
chloride

>  <Synonyms>


>  <Type>
NON-POLYMER

>  <Formula>
Cl

>  <MolecularWeight>
35.453

>  <ModifiedDate>
2011-06-04

>  <Parent>


>  <OneLetterCode>


>  <SubcomponentList>


>  <AmbiguousFlag>
N

>  <InChI>
InChI=1S/ClH/h1H/p-1

>  <InChIKey>
VEXZGXHMUGYJMC-UHFFFAOYSA-M

>  <SMILES>
[Cl-]

$$$$
185L_CL_A_173
  RCSB PDB12061701563D
Coordinates from PDB:185L:A:173 Model:1 without hydrogens
  1  0  0  0  0  0            999 V2000
   43.0650   16.6590    1.9470  Cl 0  5  0  0  0  0  0  0  0  0  0  0
M  CHG  1   1  -1
M  END
>  <InstanceId>
185L_CL_A_173

>  <ChemCompId>
CL

>  <PdbId>
185L

>  <ChainId>
A

>  <ResidueNumber>
173

>  <InsertionCode>


>  <Model>
1

>  <AltIds>


>  <MissingHeavyAtoms>
0

>  <ObservedFormula>
Cl

>  <Name>
CHLORIDE ION

>  <SystematicName>
chloride

>  <Synonyms>


>  <Type>
NON-POLYMER

>  <Formula>
Cl

>  <MolecularWeight>
35.453

>  <ModifiedDate>
2011-06-04

>  <Parent>


>  <OneLetterCode>


>  <SubcomponentList>


>  <AmbiguousFlag>
N

>  <InChI>
InChI=1S/ClH/h1H/p-1

>  <InChIKey>
VEXZGXHMUGYJMC-UHFFFAOYSA-M

>  <SMILES>
[Cl-]

$$$$
186L_CL_A_173
  RCSB PDB12061701563D
Coordinates from PDB:186L:A:173 Model:1 without hydrogens
  1  0  0  0  0  0            999 V2000
   43.1460   16.4890    1.8190  Cl 0  5  0  0  0  0  0  0  0  0  0  0
M  CHG  1   1  -1
M  END
>  <InstanceId>
186L_CL_A_173

>  <ChemCompId>
CL

>  <PdbId>
186L

>  <ChainId>
A

>  <ResidueNumber>
173

>  <InsertionCode>


>  <Model>
1

>  <AltIds>


>  <MissingHeavyAtoms>
0

>  <ObservedFormula>
Cl

>  <Name>
CHLORIDE ION

>  <SystematicName>
chloride

>  <Synonyms>


>  <Type>
NON-POLYMER

>  <Formula>
Cl

>  <MolecularWeight>
35.453

>  <ModifiedDate>
2011-06-04

>  <Parent>


>  <OneLetterCode>


>  <SubcomponentList>


>  <AmbiguousFlag>
N

>  <InChI>
InChI=1S/ClH/h1H/p-1

>  <InChIKey>
VEXZGXHMUGYJMC-UHFFFAOYSA-M

>  <SMILES>
[Cl-]

$$$$
187L_CL_A_173
  RCSB PDB12061701563D
Coordinates from PDB:187L:A:173 Model:1 without hydrogens
  1  0  0  0  0  0            999 V2000
   43.1710   16.4850    1.8540  Cl 0  5  0  0  0  0  0  0  0  0  0  0
M  CHG  1   1  -1
M  END
>  <InstanceId>
187L_CL_A_173

>  <ChemCompId>
CL

>  <PdbId>
187L

>  <ChainId>
A

>  <ResidueNumber>
173

>  <InsertionCode>


>  <Model>
1

>  <AltIds>


>  <MissingHeavyAtoms>
0

>  <ObservedFormula>
Cl

>  <Name>
CHLORIDE ION

>  <SystematicName>
chloride

>  <Synonyms>


>  <Type>
NON-POLYMER

>  <Formula>
Cl

>  <MolecularWeight>
35.453

>  <ModifiedDate>
2011-06-04

>  <Parent>


>  <OneLetterCode>


>  <SubcomponentList>


>  <AmbiguousFlag>
N

>  <InChI>
InChI=1S/ClH/h1H/p-1

>  <InChIKey>
VEXZGXHMUGYJMC-UHFFFAOYSA-M

>  <SMILES>
[Cl-]

$$$$
188L_CL_A_173
  RCSB PDB12061701563D
Coordinates from PDB:188L:A:173 Model:1 without hydrogens
  1  0  0  0  0  0            999 V2000
   43.0640   16.4360    1.9550  Cl 0  5  0  0  0  0  0  0  0  0  0  0
M  CHG  1   1  -1
M  END
>  <InstanceId>
188L_CL_A_173

>  <ChemCompId>
CL

>  <PdbId>
188L

>  <ChainId>
A

>  <ResidueNumber>
173

>  <InsertionCode>


>  <Model>
1

>  <AltIds>


>  <MissingHeavyAtoms>
0

>  <ObservedFormula>
Cl

>  <Name>
CHLORIDE ION

>  <SystematicName>
chloride

>  <Synonyms>


>  <Type>
NON-POLYMER

>  <Formula>
Cl

>  <MolecularWeight>
35.453

>  <ModifiedDate>
2011-06-04

>  <Parent>


>  <OneLetterCode>


>  <SubcomponentList>


>  <AmbiguousFlag>
N

>  <InChI>
InChI=1S/ClH/h1H/p-1

>  <InChIKey>
VEXZGXHMUGYJMC-UHFFFAOYSA-M

>  <SMILES>
[Cl-]

$$$$
1C6C_CL_A_173
  RCSB PDB12061702093D
Coordinates from PDB:1C6C:A:173 Model:1 without hydrogens
  1  0  0  0  0  0            999 V2000
   42.9360   16.0600    2.1420  Cl 0  5  0  0  0  0  0  0  0  0  0  0
M  CHG  1   1  -1
M  END
>  <InstanceId>
1C6C_CL_A_173

>  <ChemCompId>
CL

>  <PdbId>
1C6C

>  <ChainId>
A

>  <ResidueNumber>
173

>  <InsertionCode>


>  <Model>
1

>  <AltIds>


>  <MissingHeavyAtoms>
0

>  <ObservedFormula>
Cl

>  <Name>
CHLORIDE ION

>  <SystematicName>
chloride

>  <Synonyms>


>  <Type>
NON-POLYMER

>  <Formula>
Cl

>  <MolecularWeight>
35.453

>  <ModifiedDate>
2011-06-04

>  <Parent>


>  <OneLetterCode>


>  <SubcomponentList>


>  <AmbiguousFlag>
N

>  <InChI>
InChI=1S/ClH/h1H/p-1

>  <InChIKey>
VEXZGXHMUGYJMC-UHFFFAOYSA-M

>  <SMILES>
[Cl-]

$$$$
1C6D_CL_A_173
  RCSB PDB12061702093D
Coordinates from PDB:1C6D:A:173 Model:1 without hydrogens
  1  0  0  0  0  0            999 V2000
   42.8760   16.1300    2.1380  Cl 0  5  0  0  0  0  0  0  0  0  0  0
M  CHG  1   1  -1
M  END
>  <InstanceId>
1C6D_CL_A_173

>  <ChemCompId>
CL

>  <PdbId>
1C6D

>  <ChainId>
A

>  <ResidueNumber>
173

>  <InsertionCode>


>  <Model>
1

>  <AltIds>


>  <MissingHeavyAtoms>
0

>  <ObservedFormula>
Cl

>  <Name>
CHLORIDE ION

>  <SystematicName>
chloride

>  <Synonyms>


>  <Type>
NON-POLYMER

>  <Formula>
Cl

>  <MolecularWeight>
35.453

>  <ModifiedDate>
2011-06-04

>  <Parent>


>  <OneLetterCode>


>  <SubcomponentList>


>  <AmbiguousFlag>
N

>  <InChI>
InChI=1S/ClH/h1H/p-1

>  <InChIKey>
VEXZGXHMUGYJMC-UHFFFAOYSA-M

>  <SMILES>
[Cl-]

$$$$
1C6E_CL_A_173
  RCSB PDB12061702093D
Coordinates from PDB:1C6E:A:173 Model:1 without hydrogens
  1  0  0  0  0  0            999 V2000
   42.9160   16.0290    2.1310  Cl 0  5  0  0  0  0  0  0  0  0  0  0
M  CHG  1   1  -1
M  END
>  <InstanceId>
1C6E_CL_A_173

>  <ChemCompId>
CL

>  <PdbId>
1C6E

>  <ChainId>
A

>  <ResidueNumber>
173

>  <InsertionCode>


>  <Model>
1

>  <AltIds>


>  <MissingHeavyAtoms>
0

>  <ObservedFormula>
Cl

>  <Name>
CHLORIDE ION

>  <SystematicName>
chloride

>  <Synonyms>


>  <Type>
NON-POLYMER

>  <Formula>
Cl

>  <MolecularWeight>
35.453

>  <ModifiedDate>
2011-06-04

>  <Parent>


>  <OneLetterCode>


>  <SubcomponentList>


>  <AmbiguousFlag>
N

>  <InChI>
InChI=1S/ClH/h1H/p-1

>  <InChIKey>
VEXZGXHMUGYJMC-UHFFFAOYSA-M

>  <SMILES>
[Cl-]

$$$$
1C6F_CL_A_173
  RCSB PDB12061702093D
Coordinates from PDB:1C6F:A:173 Model:1 without hydrogens
  1  0  0  0  0  0            999 V2000
   42.9260   16.1230    2.1190  Cl 0  5  0  0  0  0  0  0  0  0  0  0
M  CHG  1   1  -1
M  END
>  <InstanceId>
1C6F_CL_A_173

>  <ChemCompId>
CL

>  <PdbId>
1C6F

>  <ChainId>
A

>  <ResidueNumber>
173

>  <InsertionCode>


>  <Model>
1

>  <AltIds>


>  <MissingHeavyAtoms>
0

>  <ObservedFormula>
Cl

>  <Name>
CHLORIDE ION

>  <SystematicName>
chloride

>  <Synonyms>


>  <Type>
NON-POLYMER

>  <Formula>
Cl

>  <MolecularWeight>
35.453

>  <ModifiedDate>
2011-06-04

>  <Parent>


>  <OneLetterCode>


>  <SubcomponentList>


>  <AmbiguousFlag>
N

>  <InChI>
InChI=1S/ClH/h1H/p-1

>  <InChIKey>
VEXZGXHMUGYJMC-UHFFFAOYSA-M

>  <SMILES>
[Cl-]

$$$$
1C6G_CL_A_173
  RCSB PDB12061702093D
Coordinates from PDB:1C6G:A:173 Model:1 without hydrogens
  1  0  0  0  0  0            999 V2000
   42.8280   16.1270    2.0770  Cl 0  5  0  0  0  0  0  0  0  0  0  0
M  CHG  1   1  -1
M  END
>  <InstanceId>
1C6G_CL_A_173

>  <ChemCompId>
CL

>  <PdbId>
1C6G

>  <ChainId>
A

>  <ResidueNumber>
173

>  <InsertionCode>


>  <Model>
1

>  <AltIds>


>  <MissingHeavyAtoms>
0

>  <ObservedFormula>
Cl

>  <Name>
CHLORIDE ION

>  <SystematicName>
chloride

>  <Synonyms>


>  <Type>
NON-POLYMER

>  <Formula>
Cl

>  <MolecularWeight>
35.453

>  <ModifiedDate>
2011-06-04

>  <Parent>


>  <OneLetterCode>


>  <SubcomponentList>


>  <AmbiguousFlag>
N

>  <InChI>
InChI=1S/ClH/h1H/p-1

>  <InChIKey>
VEXZGXHMUGYJMC-UHFFFAOYSA-M

>  <SMILES>
[Cl-]

$$$$
1C6H_CL_A_173
  RCSB PDB12061702093D
Coordinates from PDB:1C6H:A:173 Model:1 without hydrogens
  1  0  0  0  0  0            999 V2000
   43.1440   16.4290    1.8560  Cl 0  5  0  0  0  0  0  0  0  0  0  0
M  CHG  1   1  -1
M  END
>  <InstanceId>
1C6H_CL_A_173

>  <ChemCompId>
CL

>  <PdbId>
1C6H

>  <ChainId>
A

>  <ResidueNumber>
173

>  <InsertionCode>


>  <Model>
1

>  <AltIds>


>  <MissingHeavyAtoms>
0

>  <ObservedFormula>
Cl

>  <Name>
CHLORIDE ION

>  <SystematicName>
chloride

>  <Synonyms>


>  <Type>
NON-POLYMER

>  <Formula>
Cl

>  <MolecularWeight>
35.453

>  <ModifiedDate>
2011-06-04

>  <Parent>


>  <OneLetterCode>


>  <SubcomponentList>


>  <AmbiguousFlag>
N

>  <InChI>
InChI=1S/ClH/h1H/p-1

>  <InChIKey>
VEXZGXHMUGYJMC-UHFFFAOYSA-M

>  <SMILES>
[Cl-]

$$$$
1C6I_CL_A_173
  RCSB PDB12061702093D
Coordinates from PDB:1C6I:A:173 Model:1 without hydrogens
  1  0  0  0  0  0            999 V2000
   42.8620   16.0570    2.1170  Cl 0  5  0  0  0  0  0  0  0  0  0  0
M  CHG  1   1  -1
M  END
>  <InstanceId>
1C6I_CL_A_173

>  <ChemCompId>
CL

>  <PdbId>
1C6I

>  <ChainId>
A

>  <ResidueNumber>
173

>  <InsertionCode>


>  <Model>
1

>  <AltIds>


>  <MissingHeavyAtoms>
0

>  <ObservedFormula>
Cl

>  <Name>
CHLORIDE ION

>  <SystematicName>
chloride

>  <Synonyms>


>  <Type>
NON-POLYMER

>  <Formula>
Cl

>  <MolecularWeight>
35.453

>  <ModifiedDate>
2011-06-04

>  <Parent>


>  <OneLetterCode>


>  <SubcomponentList>


>  <AmbiguousFlag>
N

>  <InChI>
InChI=1S/ClH/h1H/p-1

>  <InChIKey>
VEXZGXHMUGYJMC-UHFFFAOYSA-M

>  <SMILES>
[Cl-]

$$$$
1C6J_CL_A_173
  RCSB PDB12061702093D
Coordinates from PDB:1C6J:A:173 Model:1 without hydrogens
  1  0  0  0  0  0            999 V2000
   42.8580   16.0670    2.0930  Cl 0  5  0  0  0  0  0  0  0  0  0  0
M  CHG  1   1  -1
M  END
>  <InstanceId>
1C6J_CL_A_173

>  <ChemCompId>
CL

>  <PdbId>
1C6J

>  <ChainId>
A

>  <ResidueNumber>
173

>  <InsertionCode>


>  <Model>
1

>  <AltIds>


>  <MissingHeavyAtoms>
0

>  <ObservedFormula>
Cl

>  <Name>
CHLORIDE ION

>  <SystematicName>
chloride

>  <Synonyms>


>  <Type>
NON-POLYMER

>  <Formula>
Cl

>  <MolecularWeight>
35.453

>  <ModifiedDate>
2011-06-04

>  <Parent>


>  <OneLetterCode>


>  <SubcomponentList>


>  <AmbiguousFlag>
N

>  <InChI>
InChI=1S/ClH/h1H/p-1

>  <InChIKey>
VEXZGXHMUGYJMC-UHFFFAOYSA-M

>  <SMILES>
[Cl-]

$$$$
1C6K_CL_A_173
  RCSB PDB12061702093D
Coordinates from PDB:1C6K:A:173 Model:1 without hydrogens
  1  0  0  0  0  0            999 V2000
   42.9260   16.0730    2.1440  Cl 0  5  0  0  0  0  0  0  0  0  0  0
M  CHG  1   1  -1
M  END
>  <InstanceId>
1C6K_CL_A_173

>  <ChemCompId>
CL

>  <PdbId>
1C6K

>  <ChainId>
A

>  <ResidueNumber>
173

>  <InsertionCode>


>  <Model>
1

>  <AltIds>


>  <MissingHeavyAtoms>
0

>  <ObservedFormula>
Cl

>  <Name>
CHLORIDE ION

>  <SystematicName>
chloride

>  <Synonyms>


>  <Type>
NON-POLYMER

>  <Formula>
Cl

>  <MolecularWeight>
35.453

>  <ModifiedDate>
2011-06-04

>  <Parent>


>  <OneLetterCode>


>  <SubcomponentList>


>  <AmbiguousFlag>
N

>  <InChI>
InChI=1S/ClH/h1H/p-1

>  <InChIKey>
VEXZGXHMUGYJMC-UHFFFAOYSA-M

>  <SMILES>
[Cl-]

$$$$
1C6L_CL_A_173
  RCSB PDB12061702093D
Coordinates from PDB:1C6L:A:173 Model:1 without hydrogens
  1  0  0  0  0  0            999 V2000
   43.0760   16.1780    2.1390  Cl 0  5  0  0  0  0  0  0  0  0  0  0
M  CHG  1   1  -1
M  END
>  <InstanceId>
1C6L_CL_A_173

>  <ChemCompId>
CL

>  <PdbId>
1C6L

>  <ChainId>
A

>  <ResidueNumber>
173

>  <InsertionCode>


>  <Model>
1

>  <AltIds>


>  <MissingHeavyAtoms>
0

>  <ObservedFormula>
Cl

>  <Name>
CHLORIDE ION

>  <SystematicName>
chloride

>  <Synonyms>


>  <Type>
NON-POLYMER

>  <Formula>
Cl

>  <MolecularWeight>
35.453

>  <ModifiedDate>
2011-06-04

>  <Parent>


>  <OneLetterCode>


>  <SubcomponentList>


>  <AmbiguousFlag>
N

>  <InChI>
InChI=1S/ClH/h1H/p-1

>  <InChIKey>
VEXZGXHMUGYJMC-UHFFFAOYSA-M

>  <SMILES>
[Cl-]

$$$$
1C6M_CL_A_173
  RCSB PDB12061702093D
Coordinates from PDB:1C6M:A:173 Model:1 without hydrogens
  1  0  0  0  0  0            999 V2000
   43.0620   16.1560    2.0560  Cl 0  5  0  0  0  0  0  0  0  0  0  0
M  CHG  1   1  -1
M  END
>  <InstanceId>
1C6M_CL_A_173

>  <ChemCompId>
CL

>  <PdbId>
1C6M

>  <ChainId>
A

>  <ResidueNumber>
173

>  <InsertionCode>


>  <Model>
1

>  <AltIds>


>  <MissingHeavyAtoms>
0

>  <ObservedFormula>
Cl

>  <Name>
CHLORIDE ION

>  <SystematicName>
chloride

>  <Synonyms>


>  <Type>
NON-POLYMER

>  <Formula>
Cl

>  <MolecularWeight>
35.453

>  <ModifiedDate>
2011-06-04

>  <Parent>


>  <OneLetterCode>


>  <SubcomponentList>


>  <AmbiguousFlag>
N

>  <InChI>
InChI=1S/ClH/h1H/p-1

>  <InChIKey>
VEXZGXHMUGYJMC-UHFFFAOYSA-M

>  <SMILES>
[Cl-]

$$$$
1C6N_CL_A_173
  RCSB PDB12061702093D
Coordinates from PDB:1C6N:A:173 Model:1 without hydrogens
  1  0  0  0  0  0            999 V2000
   44.3560   17.5340    0.2400  Cl 0  5  0  0  0  0  0  0  0  0  0  0
M  CHG  1   1  -1
M  END
>  <InstanceId>
1C6N_CL_A_173

>  <ChemCompId>
CL

>  <PdbId>
1C6N

>  <ChainId>
A

>  <ResidueNumber>
173

>  <InsertionCode>


>  <Model>
1

>  <AltIds>


>  <MissingHeavyAtoms>
0

>  <ObservedFormula>
Cl

>  <Name>
CHLORIDE ION

>  <SystematicName>
chloride

>  <Synonyms>


>  <Type>
NON-POLYMER

>  <Formula>
Cl

>  <MolecularWeight>
35.453

>  <ModifiedDate>
2011-06-04

>  <Parent>


>  <OneLetterCode>


>  <SubcomponentList>


>  <AmbiguousFlag>
N

>  <InChI>
InChI=1S/ClH/h1H/p-1

>  <InChIKey>
VEXZGXHMUGYJMC-UHFFFAOYSA-M

>  <SMILES>
[Cl-]

$$$$
1L83_CL_A_173
  RCSB PDB12061703093D
Coordinates from PDB:1L83:A:173 Model:1 without hydrogens
  1  0  0  0  0  0            999 V2000
   43.1050   16.4370    1.8380  Cl 0  5  0  0  0  0  0  0  0  0  0  0
M  CHG  1   1  -1
M  END
>  <InstanceId>
1L83_CL_A_173

>  <ChemCompId>
CL

>  <PdbId>
1L83

>  <ChainId>
A

>  <ResidueNumber>
173

>  <InsertionCode>


>  <Model>
1

>  <AltIds>


>  <MissingHeavyAtoms>
0

>  <ObservedFormula>
Cl

>  <Name>
CHLORIDE ION

>  <SystematicName>
chloride

>  <Synonyms>


>  <Type>
NON-POLYMER

>  <Formula>
Cl

>  <MolecularWeight>
35.453

>  <ModifiedDate>
2011-06-04

>  <Parent>


>  <OneLetterCode>


>  <SubcomponentList>


>  <AmbiguousFlag>
N

>  <InChI>
InChI=1S/ClH/h1H/p-1

>  <InChIKey>
VEXZGXHMUGYJMC-UHFFFAOYSA-M

>  <SMILES>
[Cl-]

$$$$
1L84_CL_A_173
  RCSB PDB12061703093D
Coordinates from PDB:1L84:A:173 Model:1 without hydrogens
  1  0  0  0  0  0            999 V2000
   43.2210   16.5220    1.7450  Cl 0  5  0  0  0  0  0  0  0  0  0  0
M  CHG  1   1  -1
M  END
>  <InstanceId>
1L84_CL_A_173

>  <ChemCompId>
CL

>  <PdbId>
1L84

>  <ChainId>
A

>  <ResidueNumber>
173

>  <InsertionCode>


>  <Model>
1

>  <AltIds>


>  <MissingHeavyAtoms>
0

>  <ObservedFormula>
Cl

>  <Name>
CHLORIDE ION

>  <SystematicName>
chloride

>  <Synonyms>


>  <Type>
NON-POLYMER

>  <Formula>
Cl

>  <MolecularWeight>
35.453

>  <ModifiedDate>
2011-06-04

>  <Parent>


>  <OneLetterCode>


>  <SubcomponentList>


>  <AmbiguousFlag>
N

>  <InChI>
InChI=1S/ClH/h1H/p-1

>  <InChIKey>
VEXZGXHMUGYJMC-UHFFFAOYSA-M

>  <SMILES>
[Cl-]

$$$$
1L89_CL_A_173
  RCSB PDB12061703093D
Coordinates from PDB:1L89:A:173 Model:1 without hydrogens
  1  0  0  0  0  0            999 V2000
   43.4960   16.6890    1.7030  Cl 0  5  0  0  0  0  0  0  0  0  0  0
M  CHG  1   1  -1
M  END
>  <InstanceId>
1L89_CL_A_173

>  <ChemCompId>
CL

>  <PdbId>
1L89

>  <ChainId>
A

>  <ResidueNumber>
173

>  <InsertionCode>


>  <Model>
1

>  <AltIds>


>  <MissingHeavyAtoms>
0

>  <ObservedFormula>
Cl

>  <Name>
CHLORIDE ION

>  <SystematicName>
chloride

>  <Synonyms>


>  <Type>
NON-POLYMER

>  <Formula>
Cl

>  <MolecularWeight>
35.453

>  <ModifiedDate>
2011-06-04

>  <Parent>


>  <OneLetterCode>


>  <SubcomponentList>


>  <AmbiguousFlag>
N

>  <InChI>
InChI=1S/ClH/h1H/p-1

>  <InChIKey>
VEXZGXHMUGYJMC-UHFFFAOYSA-M

>  <SMILES>
[Cl-]

$$$$
1L90_CL_A_173
  RCSB PDB12061703103D
Coordinates from PDB:1L90:A:173 Model:1 without hydrogens
  1  0  0  0  0  0            999 V2000
   43.0790   16.6340    1.8100  Cl 0  5  0  0  0  0  0  0  0  0  0  0
M  CHG  1   1  -1
M  END
>  <InstanceId>
1L90_CL_A_173

>  <ChemCompId>
CL

>  <PdbId>
1L90

>  <ChainId>
A

>  <ResidueNumber>
173

>  <InsertionCode>


>  <Model>
1

>  <AltIds>


>  <MissingHeavyAtoms>
0

>  <ObservedFormula>
Cl

>  <Name>
CHLORIDE ION

>  <SystematicName>
chloride

>  <Synonyms>


>  <Type>
NON-POLYMER

>  <Formula>
Cl

>  <MolecularWeight>
35.453

>  <ModifiedDate>
2011-06-04

>  <Parent>


>  <OneLetterCode>


>  <SubcomponentList>


>  <AmbiguousFlag>
N

>  <InChI>
InChI=1S/ClH/h1H/p-1

>  <InChIKey>
VEXZGXHMUGYJMC-UHFFFAOYSA-M

>  <SMILES>
[Cl-]

$$$$
1LGU_CL_A_173
  RCSB PDB12061703113D
Coordinates from PDB:1LGU:A:173 Model:1 without hydrogens
  1  0  0  0  0  0            999 V2000
   42.9790   16.3220    2.2960  Cl 0  5  0  0  0  0  0  0  0  0  0  0
M  CHG  1   1  -1
M  END
>  <InstanceId>
1LGU_CL_A_173

>  <ChemCompId>
CL

>  <PdbId>
1LGU

>  <ChainId>
A

>  <ResidueNumber>
173

>  <InsertionCode>


>  <Model>
1

>  <AltIds>


>  <MissingHeavyAtoms>
0

>  <ObservedFormula>
Cl

>  <Name>
CHLORIDE ION

>  <SystematicName>
chloride

>  <Synonyms>


>  <Type>
NON-POLYMER

>  <Formula>
Cl

>  <MolecularWeight>
35.453

>  <ModifiedDate>
2011-06-04

>  <Parent>


>  <OneLetterCode>


>  <SubcomponentList>


>  <AmbiguousFlag>
N

>  <InChI>
InChI=1S/ClH/h1H/p-1

>  <InChIKey>
VEXZGXHMUGYJMC-UHFFFAOYSA-M

>  <SMILES>
[Cl-]

$$$$
1LGW_CL_A_173
  RCSB PDB12061703113D
Coordinates from PDB:1LGW:A:173 Model:1 without hydrogens
  1  0  0  0  0  0            999 V2000
   42.9770   16.3960    2.1400  Cl 0  5  0  0  0  0  0  0  0  0  0  0
M  CHG  1   1  -1
M  END
>  <InstanceId>
1LGW_CL_A_173

>  <ChemCompId>
CL

>  <PdbId>
1LGW

>  <ChainId>
A

>  <ResidueNumber>
173

>  <InsertionCode>


>  <Model>
1

>  <AltIds>


>  <MissingHeavyAtoms>
0

>  <ObservedFormula>
Cl

>  <Name>
CHLORIDE ION

>  <SystematicName>
chloride

>  <Synonyms>


>  <Type>
NON-POLYMER

>  <Formula>
Cl

>  <MolecularWeight>
35.453

>  <ModifiedDate>
2011-06-04

>  <Parent>


>  <OneLetterCode>


>  <SubcomponentList>


>  <AmbiguousFlag>
N

>  <InChI>
InChI=1S/ClH/h1H/p-1

>  <InChIKey>
VEXZGXHMUGYJMC-UHFFFAOYSA-M

>  <SMILES>
[Cl-]

$$$$
1LGX_CL_A_173
  RCSB PDB12061703113D
Coordinates from PDB:1LGX:A:173 Model:1 without hydrogens
  1  0  0  0  0  0            999 V2000
   42.8430   16.4280    2.0490  Cl 0  5  0  0  0  0  0  0  0  0  0  0
M  CHG  1   1  -1
M  END
>  <InstanceId>
1LGX_CL_A_173

>  <ChemCompId>
CL

>  <PdbId>
1LGX

>  <ChainId>
A

>  <ResidueNumber>
173

>  <InsertionCode>


>  <Model>
1

>  <AltIds>


>  <MissingHeavyAtoms>
0

>  <ObservedFormula>
Cl

>  <Name>
CHLORIDE ION

>  <SystematicName>
chloride

>  <Synonyms>


>  <Type>
NON-POLYMER

>  <Formula>
Cl

>  <MolecularWeight>
35.453

>  <ModifiedDate>
2011-06-04

>  <Parent>


>  <OneLetterCode>


>  <SubcomponentList>


>  <AmbiguousFlag>
N

>  <InChI>
InChI=1S/ClH/h1H/p-1

>  <InChIKey>
VEXZGXHMUGYJMC-UHFFFAOYSA-M

>  <SMILES>
[Cl-]

$$$$
1LI2_CL_A_173
  RCSB PDB12061703113D
Coordinates from PDB:1LI2:A:173 Model:1 without hydrogens
  1  0  0  0  0  0            999 V2000
   42.9150   16.3990    2.0100  Cl 0  5  0  0  0  0  0  0  0  0  0  0
M  CHG  1   1  -1
M  END
>  <InstanceId>
1LI2_CL_A_173

>  <ChemCompId>
CL

>  <PdbId>
1LI2

>  <ChainId>
A

>  <ResidueNumber>
173

>  <InsertionCode>


>  <Model>
1

>  <AltIds>


>  <MissingHeavyAtoms>
0

>  <ObservedFormula>
Cl

>  <Name>
CHLORIDE ION

>  <SystematicName>
chloride

>  <Synonyms>


>  <Type>
NON-POLYMER

>  <Formula>
Cl

>  <MolecularWeight>
35.453

>  <ModifiedDate>
2011-06-04

>  <Parent>


>  <OneLetterCode>


>  <SubcomponentList>


>  <AmbiguousFlag>
N

>  <InChI>
InChI=1S/ClH/h1H/p-1

>  <InChIKey>
VEXZGXHMUGYJMC-UHFFFAOYSA-M

>  <SMILES>
[Cl-]

$$$$
1LI3_CL_A_173
  RCSB PDB12061703113D
Coordinates from PDB:1LI3:A:173 Model:1 without hydrogens
  1  0  0  0  0  0            999 V2000
   42.9630   16.3240    2.0700  Cl 0  5  0  0  0  0  0  0  0  0  0  0
M  CHG  1   1  -1
M  END
>  <InstanceId>
1LI3_CL_A_173

>  <ChemCompId>
CL

>  <PdbId>
1LI3

>  <ChainId>
A

>  <ResidueNumber>
173

>  <InsertionCode>


>  <Model>
1

>  <AltIds>


>  <MissingHeavyAtoms>
0

>  <ObservedFormula>
Cl

>  <Name>
CHLORIDE ION

>  <SystematicName>
chloride

>  <Synonyms>


>  <Type>
NON-POLYMER

>  <Formula>
Cl

>  <MolecularWeight>
35.453

>  <ModifiedDate>
2011-06-04

>  <Parent>


>  <OneLetterCode>


>  <SubcomponentList>


>  <AmbiguousFlag>
N

>  <InChI>
InChI=1S/ClH/h1H/p-1

>  <InChIKey>
VEXZGXHMUGYJMC-UHFFFAOYSA-M

>  <SMILES>
[Cl-]

$$$$
1LI6_CL_A_173
  RCSB PDB12061703113D
Coordinates from PDB:1LI6:A:173 Model:1 without hydrogens
  1  0  0  0  0  0            999 V2000
   42.9550   16.4800    2.0110  Cl 0  5  0  0  0  0  0  0  0  0  0  0
M  CHG  1   1  -1
M  END
>  <InstanceId>
1LI6_CL_A_173

>  <ChemCompId>
CL

>  <PdbId>
1LI6

>  <ChainId>
A

>  <ResidueNumber>
173

>  <InsertionCode>


>  <Model>
1

>  <AltIds>


>  <MissingHeavyAtoms>
0

>  <ObservedFormula>
Cl

>  <Name>
CHLORIDE ION

>  <SystematicName>
chloride

>  <Synonyms>


>  <Type>
NON-POLYMER

>  <Formula>
Cl

>  <MolecularWeight>
35.453

>  <ModifiedDate>
2011-06-04

>  <Parent>


>  <OneLetterCode>


>  <SubcomponentList>


>  <AmbiguousFlag>
N

>  <InChI>
InChI=1S/ClH/h1H/p-1

>  <InChIKey>
VEXZGXHMUGYJMC-UHFFFAOYSA-M

>  <SMILES>
[Cl-]

$$$$
1NHB_CL_A_173
  RCSB PDB12061703243D
Coordinates from PDB:1NHB:A:173 Model:1 without hydrogens
  1  0  0  0  0  0            999 V2000
   43.0600   16.4660    1.8300  Cl 0  5  0  0  0  0  0  0  0  0  0  0
M  CHG  1   1  -1
M  END
>  <InstanceId>
1NHB_CL_A_173

>  <ChemCompId>
CL

>  <PdbId>
1NHB

>  <ChainId>
A

>  <ResidueNumber>
173

>  <InsertionCode>


>  <Model>
1

>  <AltIds>


>  <MissingHeavyAtoms>
0

>  <ObservedFormula>
Cl

>  <Name>
CHLORIDE ION

>  <SystematicName>
chloride

>  <Synonyms>


>  <Type>
NON-POLYMER

>  <Formula>
Cl

>  <MolecularWeight>
35.453

>  <ModifiedDate>
2011-06-04

>  <Parent>


>  <OneLetterCode>


>  <SubcomponentList>


>  <AmbiguousFlag>
N

>  <InChI>
InChI=1S/ClH/h1H/p-1

>  <InChIKey>
VEXZGXHMUGYJMC-UHFFFAOYSA-M

>  <SMILES>
[Cl-]

$$$$
1OV5_CL_A_173
  RCSB PDB12061703353D
Coordinates from PDB:1OV5:A:173 Model:1 without hydrogens
  1  0  0  0  0  0            999 V2000
   43.1330   16.2460    1.8430  Cl 0  5  0  0  0  0  0  0  0  0  0  0
M  CHG  1   1  -1
M  END
>  <InstanceId>
1OV5_CL_A_173

>  <ChemCompId>
CL

>  <PdbId>
1OV5

>  <ChainId>
A

>  <ResidueNumber>
173

>  <InsertionCode>


>  <Model>
1

>  <AltIds>


>  <MissingHeavyAtoms>
0

>  <ObservedFormula>
Cl

>  <Name>
CHLORIDE ION

>  <SystematicName>
chloride

>  <Synonyms>


>  <Type>
NON-POLYMER

>  <Formula>
Cl

>  <MolecularWeight>
35.453

>  <ModifiedDate>
2011-06-04

>  <Parent>


>  <OneLetterCode>


>  <SubcomponentList>


>  <AmbiguousFlag>
N

>  <InChI>
InChI=1S/ClH/h1H/p-1

>  <InChIKey>
VEXZGXHMUGYJMC-UHFFFAOYSA-M

>  <SMILES>
[Cl-]

$$$$
1OV7_CL_A_173
  RCSB PDB12061703363D
Coordinates from PDB:1OV7:A:173 Model:1 without hydrogens
  1  0  0  0  0  0            999 V2000
   42.9050   16.5470    2.0050  Cl 0  5  0  0  0  0  0  0  0  0  0  0
M  CHG  1   1  -1
M  END
>  <InstanceId>
1OV7_CL_A_173

>  <ChemCompId>
CL

>  <PdbId>
1OV7

>  <ChainId>
A

>  <ResidueNumber>
173

>  <InsertionCode>


>  <Model>
1

>  <AltIds>


>  <MissingHeavyAtoms>
0

>  <ObservedFormula>
Cl

>  <Name>
CHLORIDE ION

>  <SystematicName>
chloride

>  <Synonyms>


>  <Type>
NON-POLYMER

>  <Formula>
Cl

>  <MolecularWeight>
35.453

>  <ModifiedDate>
2011-06-04

>  <Parent>


>  <OneLetterCode>


>  <SubcomponentList>


>  <AmbiguousFlag>
N

>  <InChI>
InChI=1S/ClH/h1H/p-1

>  <InChIKey>
VEXZGXHMUGYJMC-UHFFFAOYSA-M

>  <SMILES>
[Cl-]

$$$$
1OVH_CL_A_173
  RCSB PDB12061703363D
Coordinates from PDB:1OVH:A:173 Model:1 without hydrogens
  1  0  0  0  0  0            999 V2000
   42.9500   16.3960    2.1490  Cl 0  5  0  0  0  0  0  0  0  0  0  0
M  CHG  1   1  -1
M  END
>  <InstanceId>
1OVH_CL_A_173

>  <ChemCompId>
CL

>  <PdbId>
1OVH

>  <ChainId>
A

>  <ResidueNumber>
173

>  <InsertionCode>


>  <Model>
1

>  <AltIds>


>  <MissingHeavyAtoms>
0

>  <ObservedFormula>
Cl

>  <Name>
CHLORIDE ION

>  <SystematicName>
chloride

>  <Synonyms>


>  <Type>
NON-POLYMER

>  <Formula>
Cl

>  <MolecularWeight>
35.453

>  <ModifiedDate>
2011-06-04

>  <Parent>


>  <OneLetterCode>


>  <SubcomponentList>


>  <AmbiguousFlag>
N

>  <InChI>
InChI=1S/ClH/h1H/p-1

>  <InChIKey>
VEXZGXHMUGYJMC-UHFFFAOYSA-M

>  <SMILES>
[Cl-]

$$$$
1OVJ_CL_A_173
  RCSB PDB12061703363D
Coordinates from PDB:1OVJ:A:173 Model:1 without hydrogens
  1  0  0  0  0  0            999 V2000
   42.7970   16.2940    2.1400  Cl 0  5  0  0  0  0  0  0  0  0  0  0
M  CHG  1   1  -1
M  END
>  <InstanceId>
1OVJ_CL_A_173

>  <ChemCompId>
CL

>  <PdbId>
1OVJ

>  <ChainId>
A

>  <ResidueNumber>
173

>  <InsertionCode>


>  <Model>
1

>  <AltIds>


>  <MissingHeavyAtoms>
0

>  <ObservedFormula>
Cl

>  <Name>
CHLORIDE ION

>  <SystematicName>
chloride

>  <Synonyms>


>  <Type>
NON-POLYMER

>  <Formula>
Cl

>  <MolecularWeight>
35.453

>  <ModifiedDate>
2011-06-04

>  <Parent>


>  <OneLetterCode>


>  <SubcomponentList>


>  <AmbiguousFlag>
N

>  <InChI>
InChI=1S/ClH/h1H/p-1

>  <InChIKey>
VEXZGXHMUGYJMC-UHFFFAOYSA-M

>  <SMILES>
[Cl-]

$$$$
1OVK_CL_A_173
  RCSB PDB12061703363D
Coordinates from PDB:1OVK:A:173 Model:1 without hydrogens
  1  0  0  0  0  0            999 V2000
   43.2150   16.3540    1.9970  Cl 0  5  0  0  0  0  0  0  0  0  0  0
M  CHG  1   1  -1
M  END
>  <InstanceId>
1OVK_CL_A_173

>  <ChemCompId>
CL

>  <PdbId>
1OVK

>  <ChainId>
A

>  <ResidueNumber>
173

>  <InsertionCode>


>  <Model>
1

>  <AltIds>


>  <MissingHeavyAtoms>
0

>  <ObservedFormula>
Cl

>  <Name>
CHLORIDE ION

>  <SystematicName>
chloride

>  <Synonyms>


>  <Type>
NON-POLYMER

>  <Formula>
Cl

>  <MolecularWeight>
35.453

>  <ModifiedDate>
2011-06-04

>  <Parent>


>  <OneLetterCode>


>  <SubcomponentList>


>  <AmbiguousFlag>
N

>  <InChI>
InChI=1S/ClH/h1H/p-1

>  <InChIKey>
VEXZGXHMUGYJMC-UHFFFAOYSA-M

>  <SMILES>
[Cl-]

$$$$
1OWY_CL_A_173
  RCSB PDB12061703363D
Coordinates from PDB:1OWY:A:173 Model:1 without hydrogens
  1  0  0  0  0  0            999 V2000
   42.8960   16.1770    2.1890  Cl 0  5  0  0  0  0  0  0  0  0  0  0
M  CHG  1   1  -1
M  END
>  <InstanceId>
1OWY_CL_A_173

>  <ChemCompId>
CL

>  <PdbId>
1OWY

>  <ChainId>
A

>  <ResidueNumber>
173

>  <InsertionCode>


>  <Model>
1

>  <AltIds>


>  <MissingHeavyAtoms>
0

>  <ObservedFormula>
Cl

>  <Name>
CHLORIDE ION

>  <SystematicName>
chloride

>  <Synonyms>


>  <Type>
NON-POLYMER

>  <Formula>
Cl

>  <MolecularWeight>
35.453

>  <ModifiedDate>
2011-06-04

>  <Parent>


>  <OneLetterCode>


>  <SubcomponentList>


>  <AmbiguousFlag>
N

>  <InChI>
InChI=1S/ClH/h1H/p-1

>  <InChIKey>
VEXZGXHMUGYJMC-UHFFFAOYSA-M

>  <SMILES>
[Cl-]

$$$$
1OWZ_CL_A_173
  RCSB PDB12061703363D
Coordinates from PDB:1OWZ:A:173 Model:1 without hydrogens
  1  0  0  0  0  0            999 V2000
   42.8420   16.2500    2.1270  Cl 0  5  0  0  0  0  0  0  0  0  0  0
M  CHG  1   1  -1
M  END
>  <InstanceId>
1OWZ_CL_A_173

>  <ChemCompId>
CL

>  <PdbId>
1OWZ

>  <ChainId>
A

>  <ResidueNumber>
173

>  <InsertionCode>


>  <Model>
1

>  <AltIds>


>  <MissingHeavyAtoms>
0

>  <ObservedFormula>
Cl

>  <Name>
CHLORIDE ION

>  <SystematicName>
chloride

>  <Synonyms>


>  <Type>
NON-POLYMER

>  <Formula>
Cl

>  <MolecularWeight>
35.453

>  <ModifiedDate>
2011-06-04

>  <Parent>


>  <OneLetterCode>


>  <SubcomponentList>


>  <AmbiguousFlag>
N

>  <InChI>
InChI=1S/ClH/h1H/p-1

>  <InChIKey>
VEXZGXHMUGYJMC-UHFFFAOYSA-M

>  <SMILES>
[Cl-]

$$$$
1QUO_CL_A_500
  RCSB PDB12061703493D
Coordinates from PDB:1QUO:A:500 Model:1 without hydrogens
  1  0  0  0  0  0            999 V2000
   43.0170   16.2650    1.9760  Cl 0  5  0  0  0  0  0  0  0  0  0  0
M  CHG  1   1  -1
M  END
>  <InstanceId>
1QUO_CL_A_500

>  <ChemCompId>
CL

>  <PdbId>
1QUO

>  <ChainId>
A

>  <ResidueNumber>
500

>  <InsertionCode>


>  <Model>
1

>  <AltIds>


>  <MissingHeavyAtoms>
0

>  <ObservedFormula>
Cl

>  <Name>
CHLORIDE ION

>  <SystematicName>
chloride

>  <Synonyms>


>  <Type>
NON-POLYMER

>  <Formula>
Cl

>  <MolecularWeight>
35.453

>  <ModifiedDate>
2011-06-04

>  <Parent>


>  <OneLetterCode>


>  <SubcomponentList>


>  <AmbiguousFlag>
N

>  <InChI>
InChI=1S/ClH/h1H/p-1

>  <InChIKey>
VEXZGXHMUGYJMC-UHFFFAOYSA-M

>  <SMILES>
[Cl-]

$$$$
2B6T_CL_A_173
  RCSB PDB12061705053D
Coordinates from PDB:2B6T:A:173 Model:1 without hydrogens
  1  0  0  0  0  0            999 V2000
   42.5790   16.1270    2.1690  Cl 0  5  0  0  0  0  0  0  0  0  0  0
M  CHG  1   1  -1
M  END
>  <InstanceId>
2B6T_CL_A_173

>  <ChemCompId>
CL

>  <PdbId>
2B6T

>  <ChainId>
A

>  <ResidueNumber>
173

>  <InsertionCode>


>  <Model>
1

>  <AltIds>


>  <MissingHeavyAtoms>
0

>  <ObservedFormula>
Cl

>  <Name>
CHLORIDE ION

>  <SystematicName>
chloride

>  <Synonyms>


>  <Type>
NON-POLYMER

>  <Formula>
Cl

>  <MolecularWeight>
35.453

>  <ModifiedDate>
2011-06-04

>  <Parent>


>  <OneLetterCode>


>  <SubcomponentList>


>  <AmbiguousFlag>
N

>  <InChI>
InChI=1S/ClH/h1H/p-1

>  <InChIKey>
VEXZGXHMUGYJMC-UHFFFAOYSA-M

>  <SMILES>
[Cl-]

$$$$
2B6W_CL_A_173
  RCSB PDB12061705053D
Coordinates from PDB:2B6W:A:173 Model:1 without hydrogens
  1  0  0  0  0  0            999 V2000
   42.6690   16.0260    2.2390  Cl 0  5  0  0  0  0  0  0  0  0  0  0
M  CHG  1   1  -1
M  END
>  <InstanceId>
2B6W_CL_A_173

>  <ChemCompId>
CL

>  <PdbId>
2B6W

>  <ChainId>
A

>  <ResidueNumber>
173

>  <InsertionCode>


>  <Model>
1

>  <AltIds>


>  <MissingHeavyAtoms>
0

>  <ObservedFormula>
Cl

>  <Name>
CHLORIDE ION

>  <SystematicName>
chloride

>  <Synonyms>


>  <Type>
NON-POLYMER

>  <Formula>
Cl

>  <MolecularWeight>
35.453

>  <ModifiedDate>
2011-06-04

>  <Parent>


>  <OneLetterCode>


>  <SubcomponentList>


>  <AmbiguousFlag>
N

>  <InChI>
InChI=1S/ClH/h1H/p-1

>  <InChIKey>
VEXZGXHMUGYJMC-UHFFFAOYSA-M

>  <SMILES>
[Cl-]

$$$$
2B6X_CL_A_173
  RCSB PDB12061705053D
Coordinates from PDB:2B6X:A:173 Model:1 without hydrogens
  1  0  0  0  0  0            999 V2000
   42.5690   16.1500    2.0700  Cl 0  5  0  0  0  0  0  0  0  0  0  0
M  CHG  1   1  -1
M  END
>  <InstanceId>
2B6X_CL_A_173

>  <ChemCompId>
CL

>  <PdbId>
2B6X

>  <ChainId>
A

>  <ResidueNumber>
173

>  <InsertionCode>


>  <Model>
1

>  <AltIds>


>  <MissingHeavyAtoms>
0

>  <ObservedFormula>
Cl

>  <Name>
CHLORIDE ION

>  <SystematicName>
chloride

>  <Synonyms>


>  <Type>
NON-POLYMER

>  <Formula>
Cl

>  <MolecularWeight>
35.453

>  <ModifiedDate>
2011-06-04

>  <Parent>


>  <OneLetterCode>


>  <SubcomponentList>


>  <AmbiguousFlag>
N

>  <InChI>
InChI=1S/ClH/h1H/p-1

>  <InChIKey>
VEXZGXHMUGYJMC-UHFFFAOYSA-M

>  <SMILES>
[Cl-]

$$$$
2B6Y_CL_A_173
  RCSB PDB12061705053D
Coordinates from PDB:2B6Y:A:173 Model:1 without hydrogens
  1  0  0  0  0  0            999 V2000
   43.0240   16.2000    2.2080  Cl 0  5  0  0  0  0  0  0  0  0  0  0
M  CHG  1   1  -1
M  END
>  <InstanceId>
2B6Y_CL_A_173

>  <ChemCompId>
CL

>  <PdbId>
2B6Y

>  <ChainId>
A

>  <ResidueNumber>
173

>  <InsertionCode>


>  <Model>
1

>  <AltIds>


>  <MissingHeavyAtoms>
0

>  <ObservedFormula>
Cl

>  <Name>
CHLORIDE ION

>  <SystematicName>
chloride

>  <Synonyms>


>  <Type>
NON-POLYMER

>  <Formula>
Cl

>  <MolecularWeight>
35.453

>  <ModifiedDate>
2011-06-04

>  <Parent>


>  <OneLetterCode>


>  <SubcomponentList>


>  <AmbiguousFlag>
N

>  <InChI>
InChI=1S/ClH/h1H/p-1

>  <InChIKey>
VEXZGXHMUGYJMC-UHFFFAOYSA-M

>  <SMILES>
[Cl-]

$$$$
2B6Z_CL_A_173
  RCSB PDB12061705053D
Coordinates from PDB:2B6Z:A:173 Model:1 without hydrogens
  1  0  0  0  0  0            999 V2000
   43.0330   16.1280    2.2070  Cl 0  5  0  0  0  0  0  0  0  0  0  0
M  CHG  1   1  -1
M  END
>  <InstanceId>
2B6Z_CL_A_173

>  <ChemCompId>
CL

>  <PdbId>
2B6Z

>  <ChainId>
A

>  <ResidueNumber>
173

>  <InsertionCode>


>  <Model>
1

>  <AltIds>


>  <MissingHeavyAtoms>
0

>  <ObservedFormula>
Cl

>  <Name>
CHLORIDE ION

>  <SystematicName>
chloride

>  <Synonyms>


>  <Type>
NON-POLYMER

>  <Formula>
Cl

>  <MolecularWeight>
35.453

>  <ModifiedDate>
2011-06-04

>  <Parent>


>  <OneLetterCode>


>  <SubcomponentList>


>  <AmbiguousFlag>
N

>  <InChI>
InChI=1S/ClH/h1H/p-1

>  <InChIKey>
VEXZGXHMUGYJMC-UHFFFAOYSA-M

>  <SMILES>
[Cl-]

$$$$
2B70_CL_A_173
  RCSB PDB12061705053D
Coordinates from PDB:2B70:A:173 Model:1 without hydrogens
  1  0  0  0  0  0            999 V2000
   43.1250   16.2460    2.0660  Cl 0  5  0  0  0  0  0  0  0  0  0  0
M  CHG  1   1  -1
M  END
>  <InstanceId>
2B70_CL_A_173

>  <ChemCompId>
CL

>  <PdbId>
2B70

>  <ChainId>
A

>  <ResidueNumber>
173

>  <InsertionCode>


>  <Model>
1

>  <AltIds>


>  <MissingHeavyAtoms>
0

>  <ObservedFormula>
Cl

>  <Name>
CHLORIDE ION

>  <SystematicName>
chloride

>  <Synonyms>


>  <Type>
NON-POLYMER

>  <Formula>
Cl

>  <MolecularWeight>
35.453

>  <ModifiedDate>
2011-06-04

>  <Parent>


>  <OneLetterCode>


>  <SubcomponentList>


>  <AmbiguousFlag>
N

>  <InChI>
InChI=1S/ClH/h1H/p-1

>  <InChIKey>
VEXZGXHMUGYJMC-UHFFFAOYSA-M

>  <SMILES>
[Cl-]

$$$$
2B72_CL_A_173
  RCSB PDB12061705053D
Coordinates from PDB:2B72:A:173 Model:1 without hydrogens
  1  0  0  0  0  0            999 V2000
   42.7500   16.1350    2.1940  Cl 0  5  0  0  0  0  0  0  0  0  0  0
M  CHG  1   1  -1
M  END
>  <InstanceId>
2B72_CL_A_173

>  <ChemCompId>
CL

>  <PdbId>
2B72

>  <ChainId>
A

>  <ResidueNumber>
173

>  <InsertionCode>


>  <Model>
1

>  <AltIds>


>  <MissingHeavyAtoms>
0

>  <ObservedFormula>
Cl

>  <Name>
CHLORIDE ION

>  <SystematicName>
chloride

>  <Synonyms>


>  <Type>
NON-POLYMER

>  <Formula>
Cl

>  <MolecularWeight>
35.453

>  <ModifiedDate>
2011-06-04

>  <Parent>


>  <OneLetterCode>


>  <SubcomponentList>


>  <AmbiguousFlag>
N

>  <InChI>
InChI=1S/ClH/h1H/p-1

>  <InChIKey>
VEXZGXHMUGYJMC-UHFFFAOYSA-M

>  <SMILES>
[Cl-]

$$$$
2B73_CL_A_173
  RCSB PDB12061705053D
Coordinates from PDB:2B73:A:173 Model:1 without hydrogens
  1  0  0  0  0  0            999 V2000
   42.8620   16.1340    2.2310  Cl 0  5  0  0  0  0  0  0  0  0  0  0
M  CHG  1   1  -1
M  END
>  <InstanceId>
2B73_CL_A_173

>  <ChemCompId>
CL

>  <PdbId>
2B73

>  <ChainId>
A

>  <ResidueNumber>
173

>  <InsertionCode>


>  <Model>
1

>  <AltIds>


>  <MissingHeavyAtoms>
0

>  <ObservedFormula>
Cl

>  <Name>
CHLORIDE ION

>  <SystematicName>
chloride

>  <Synonyms>


>  <Type>
NON-POLYMER

>  <Formula>
Cl

>  <MolecularWeight>
35.453

>  <ModifiedDate>
2011-06-04

>  <Parent>


>  <OneLetterCode>


>  <SubcomponentList>


>  <AmbiguousFlag>
N

>  <InChI>
InChI=1S/ClH/h1H/p-1

>  <InChIKey>
VEXZGXHMUGYJMC-UHFFFAOYSA-M

>  <SMILES>
[Cl-]

$$$$
2B74_CL_A_173
  RCSB PDB12061705053D
Coordinates from PDB:2B74:A:173 Model:1 without hydrogens
  1  0  0  0  0  0            999 V2000
   42.8400   16.2910    2.0990  Cl 0  5  0  0  0  0  0  0  0  0  0  0
M  CHG  1   1  -1
M  END
>  <InstanceId>
2B74_CL_A_173

>  <ChemCompId>
CL

>  <PdbId>
2B74

>  <ChainId>
A

>  <ResidueNumber>
173

>  <InsertionCode>


>  <Model>
1

>  <AltIds>


>  <MissingHeavyAtoms>
0

>  <ObservedFormula>
Cl

>  <Name>
CHLORIDE ION

>  <SystematicName>
chloride

>  <Synonyms>


>  <Type>
NON-POLYMER

>  <Formula>
Cl

>  <MolecularWeight>
35.453

>  <ModifiedDate>
2011-06-04

>  <Parent>


>  <OneLetterCode>


>  <SubcomponentList>


>  <AmbiguousFlag>
N

>  <InChI>
InChI=1S/ClH/h1H/p-1

>  <InChIKey>
VEXZGXHMUGYJMC-UHFFFAOYSA-M

>  <SMILES>
[Cl-]

$$$$
2B75_CL_A_173
  RCSB PDB12061705053D
Coordinates from PDB:2B75:A:173 Model:1 without hydrogens
  1  0  0  0  0  0            999 V2000
   42.6720   16.1160    2.1490  Cl 0  5  0  0  0  0  0  0  0  0  0  0
M  CHG  1   1  -1
M  END
>  <InstanceId>
2B75_CL_A_173

>  <ChemCompId>
CL

>  <PdbId>
2B75

>  <ChainId>
A

>  <ResidueNumber>
173

>  <InsertionCode>


>  <Model>
1

>  <AltIds>


>  <MissingHeavyAtoms>
0

>  <ObservedFormula>
Cl

>  <Name>
CHLORIDE ION

>  <SystematicName>
chloride

>  <Synonyms>


>  <Type>
NON-POLYMER

>  <Formula>
Cl

>  <MolecularWeight>
35.453

>  <ModifiedDate>
2011-06-04

>  <Parent>


>  <OneLetterCode>


>  <SubcomponentList>


>  <AmbiguousFlag>
N

>  <InChI>
InChI=1S/ClH/h1H/p-1

>  <InChIKey>
VEXZGXHMUGYJMC-UHFFFAOYSA-M

>  <SMILES>
[Cl-]

$$$$
3DKE_CL_X_701
  RCSB PDB12061708203D
Coordinates from PDB:3DKE:X:701 Model:1 without hydrogens
  1  0  0  0  0  0            999 V2000
   42.7760   16.3620    1.8850  Cl 0  5  0  0  0  0  0  0  0  0  0  0
M  CHG  1   1  -1
M  END
>  <InstanceId>
3DKE_CL_X_701

>  <ChemCompId>
CL

>  <PdbId>
3DKE

>  <ChainId>
X

>  <ResidueNumber>
701

>  <InsertionCode>


>  <Model>
1

>  <AltIds>


>  <MissingHeavyAtoms>
0

>  <ObservedFormula>
Cl

>  <Name>
CHLORIDE ION

>  <SystematicName>
chloride

>  <Synonyms>


>  <Type>
NON-POLYMER

>  <Formula>
Cl

>  <MolecularWeight>
35.453

>  <ModifiedDate>
2011-06-04

>  <Parent>


>  <OneLetterCode>


>  <SubcomponentList>


>  <AmbiguousFlag>
N

>  <InChI>
InChI=1S/ClH/h1H/p-1

>  <InChIKey>
VEXZGXHMUGYJMC-UHFFFAOYSA-M

>  <SMILES>
[Cl-]

$$$$
3DMV_CL_A_902
  RCSB PDB12061708203D
Coordinates from PDB:3DMV:A:902 Model:1 without hydrogens
  1  0  0  0  0  0            999 V2000
   47.5060   13.7360    1.8810  Cl 0  5  0  0  0  0  0  0  0  0  0  0
M  CHG  1   1  -1
M  END
>  <InstanceId>
3DMV_CL_A_902

>  <ChemCompId>
CL

>  <PdbId>
3DMV

>  <ChainId>
A

>  <ResidueNumber>
902

>  <InsertionCode>


>  <Model>
1

>  <AltIds>


>  <MissingHeavyAtoms>
0

>  <ObservedFormula>
Cl

>  <Name>
CHLORIDE ION

>  <SystematicName>
chloride

>  <Synonyms>


>  <Type>
NON-POLYMER

>  <Formula>
Cl

>  <MolecularWeight>
35.453

>  <ModifiedDate>
2011-06-04

>  <Parent>


>  <OneLetterCode>


>  <SubcomponentList>


>  <AmbiguousFlag>
N

>  <InChI>
InChI=1S/ClH/h1H/p-1

>  <InChIKey>
VEXZGXHMUGYJMC-UHFFFAOYSA-M

>  <SMILES>
[Cl-]

$$$$
3DMX_CL_A_903
  RCSB PDB12061708203D
Coordinates from PDB:3DMX:A:903 Model:1 without hydrogens
  1  0  0  0  0  0            999 V2000
   44.8620   26.9360   23.4540  Cl 0  5  0  0  0  0  0  0  0  0  0  0
M  CHG  1   1  -1
M  END
>  <InstanceId>
3DMX_CL_A_903

>  <ChemCompId>
CL

>  <PdbId>
3DMX

>  <ChainId>
A

>  <ResidueNumber>
903

>  <InsertionCode>


>  <Model>
1

>  <AltIds>


>  <MissingHeavyAtoms>
0

>  <ObservedFormula>
Cl

>  <Name>
CHLORIDE ION

>  <SystematicName>
chloride

>  <Synonyms>


>  <Type>
NON-POLYMER

>  <Formula>
Cl

>  <MolecularWeight>
35.453

>  <ModifiedDate>
2011-06-04

>  <Parent>


>  <OneLetterCode>


>  <SubcomponentList>


>  <AmbiguousFlag>
N

>  <InChI>
InChI=1S/ClH/h1H/p-1

>  <InChIKey>
VEXZGXHMUGYJMC-UHFFFAOYSA-M

>  <SMILES>
[Cl-]

$$$$
3DMZ_CL_A_903
  RCSB PDB12061708203D
Coordinates from PDB:3DMZ:A:903 Model:1 without hydrogens
  1  0  0  0  0  0            999 V2000
   45.5970   26.2360   23.4540  Cl 0  5  0  0  0  0  0  0  0  0  0  0
M  CHG  1   1  -1
M  END
>  <InstanceId>
3DMZ_CL_A_903

>  <ChemCompId>
CL

>  <PdbId>
3DMZ

>  <ChainId>
A

>  <ResidueNumber>
903

>  <InsertionCode>


>  <Model>
1

>  <AltIds>


>  <MissingHeavyAtoms>
0

>  <ObservedFormula>
Cl

>  <Name>
CHLORIDE ION

>  <SystematicName>
chloride

>  <Synonyms>


>  <Type>
NON-POLYMER

>  <Formula>
Cl

>  <MolecularWeight>
35.453

>  <ModifiedDate>
2011-06-04

>  <Parent>


>  <OneLetterCode>


>  <SubcomponentList>


>  <AmbiguousFlag>
N

>  <InChI>
InChI=1S/ClH/h1H/p-1

>  <InChIKey>
VEXZGXHMUGYJMC-UHFFFAOYSA-M

>  <SMILES>
[Cl-]

$$$$
3DN0_CL_A_903
  RCSB PDB12061708203D
Coordinates from PDB:3DN0:A:903 Model:1 without hydrogens
  1  0  0  0  0  0            999 V2000
   45.5640   26.4240   23.5820  Cl 0  5  0  0  0  0  0  0  0  0  0  0
M  CHG  1   1  -1
M  END
>  <InstanceId>
3DN0_CL_A_903

>  <ChemCompId>
CL

>  <PdbId>
3DN0

>  <ChainId>
A

>  <ResidueNumber>
903

>  <InsertionCode>


>  <Model>
1

>  <AltIds>


>  <MissingHeavyAtoms>
0

>  <ObservedFormula>
Cl

>  <Name>
CHLORIDE ION

>  <SystematicName>
chloride

>  <Synonyms>


>  <Type>
NON-POLYMER

>  <Formula>
Cl

>  <MolecularWeight>
35.453

>  <ModifiedDate>
2011-06-04

>  <Parent>


>  <OneLetterCode>


>  <SubcomponentList>


>  <AmbiguousFlag>
N

>  <InChI>
InChI=1S/ClH/h1H/p-1

>  <InChIKey>
VEXZGXHMUGYJMC-UHFFFAOYSA-M

>  <SMILES>
[Cl-]

$$$$
3DN1_CL_A_903
  RCSB PDB12061708203D
Coordinates from PDB:3DN1:A:903 Model:1 without hydrogens
  1  0  0  0  0  0            999 V2000
   45.0840   26.6930   23.5400  Cl 0  5  0  0  0  0  0  0  0  0  0  0
M  CHG  1   1  -1
M  END
>  <InstanceId>
3DN1_CL_A_903

>  <ChemCompId>
CL

>  <PdbId>
3DN1

>  <ChainId>
A

>  <ResidueNumber>
903

>  <InsertionCode>


>  <Model>
1

>  <AltIds>


>  <MissingHeavyAtoms>
0

>  <ObservedFormula>
Cl

>  <Name>
CHLORIDE ION

>  <SystematicName>
chloride

>  <Synonyms>


>  <Type>
NON-POLYMER

>  <Formula>
Cl

>  <MolecularWeight>
35.453

>  <ModifiedDate>
2011-06-04

>  <Parent>


>  <OneLetterCode>


>  <SubcomponentList>


>  <AmbiguousFlag>
N

>  <InChI>
InChI=1S/ClH/h1H/p-1

>  <InChIKey>
VEXZGXHMUGYJMC-UHFFFAOYSA-M

>  <SMILES>
[Cl-]

$$$$
3DN8_CL_A_902
  RCSB PDB12061708203D
Coordinates from PDB:3DN8:A:902 Model:1 without hydrogens
  1  0  0  0  0  0            999 V2000
   47.2340   13.4220    2.2030  Cl 0  5  0  0  0  0  0  0  0  0  0  0
M  CHG  1   1  -1
M  END
>  <InstanceId>
3DN8_CL_A_902

>  <ChemCompId>
CL

>  <PdbId>
3DN8

>  <ChainId>
A

>  <ResidueNumber>
902

>  <InsertionCode>


>  <Model>
1

>  <AltIds>


>  <MissingHeavyAtoms>
0

>  <ObservedFormula>
Cl

>  <Name>
CHLORIDE ION

>  <SystematicName>
chloride

>  <Synonyms>


>  <Type>
NON-POLYMER

>  <Formula>
Cl

>  <MolecularWeight>
35.453

>  <ModifiedDate>
2011-06-04

>  <Parent>


>  <OneLetterCode>


>  <SubcomponentList>


>  <AmbiguousFlag>
N

>  <InChI>
InChI=1S/ClH/h1H/p-1

>  <InChIKey>
VEXZGXHMUGYJMC-UHFFFAOYSA-M

>  <SMILES>
[Cl-]

$$$$
3DNA_CL_A_902
  RCSB PDB12061708203D
Coordinates from PDB:3DNA:A:902 Model:1 without hydrogens
  1  0  0  0  0  0            999 V2000
   47.1540   13.3830    2.2390  Cl 0  5  0  0  0  0  0  0  0  0  0  0
M  CHG  1   1  -1
M  END
>  <InstanceId>
3DNA_CL_A_902

>  <ChemCompId>
CL

>  <PdbId>
3DNA

>  <ChainId>
A

>  <ResidueNumber>
902

>  <InsertionCode>


>  <Model>
1

>  <AltIds>


>  <MissingHeavyAtoms>
0

>  <ObservedFormula>
Cl

>  <Name>
CHLORIDE ION

>  <SystematicName>
chloride

>  <Synonyms>


>  <Type>
NON-POLYMER

>  <Formula>
Cl

>  <MolecularWeight>
35.453

>  <ModifiedDate>
2011-06-04

>  <Parent>


>  <OneLetterCode>


>  <SubcomponentList>


>  <AmbiguousFlag>
N

>  <InChI>
InChI=1S/ClH/h1H/p-1

>  <InChIKey>
VEXZGXHMUGYJMC-UHFFFAOYSA-M

>  <SMILES>
[Cl-]

$$$$
3GUK_CL_A_166
  RCSB PDB12061708473D
Coordinates from PDB:3GUK:A:166 Model:1 without hydrogens
  1  0  0  0  0  0            999 V2000
    3.3330   20.9100   -6.4830  Cl 0  5  0  0  0  0  0  0  0  0  0  0
M  CHG  1   1  -1
M  END
>  <InstanceId>
3GUK_CL_A_166

>  <ChemCompId>
CL

>  <PdbId>
3GUK

>  <ChainId>
A

>  <ResidueNumber>
166

>  <InsertionCode>


>  <Model>
1

>  <AltIds>


>  <MissingHeavyAtoms>
0

>  <ObservedFormula>
Cl

>  <Name>
CHLORIDE ION

>  <SystematicName>
chloride

>  <Synonyms>


>  <Type>
NON-POLYMER

>  <Formula>
Cl

>  <MolecularWeight>
35.453

>  <ModifiedDate>
2011-06-04

>  <Parent>


>  <OneLetterCode>


>  <SubcomponentList>


>  <AmbiguousFlag>
N

>  <InChI>
InChI=1S/ClH/h1H/p-1

>  <InChIKey>
VEXZGXHMUGYJMC-UHFFFAOYSA-M

>  <SMILES>
[Cl-]

$$$$
3GUL_CL_B_166
  RCSB PDB12061708473D
Coordinates from PDB:3GUL:B:166 Model:1 without hydrogens
  1  0  0  0  0  0            999 V2000
    3.8300   21.0580   -6.2370  Cl 0  5  0  0  0  0  0  0  0  0  0  0
M  CHG  1   1  -1
M  END
>  <InstanceId>
3GUL_CL_B_166

>  <ChemCompId>
CL

>  <PdbId>
3GUL

>  <ChainId>
B

>  <ResidueNumber>
166

>  <InsertionCode>


>  <Model>
1

>  <AltIds>


>  <MissingHeavyAtoms>
0

>  <ObservedFormula>
Cl

>  <Name>
CHLORIDE ION

>  <SystematicName>
chloride

>  <Synonyms>


>  <Type>
NON-POLYMER

>  <Formula>
Cl

>  <MolecularWeight>
35.453

>  <ModifiedDate>
2011-06-04

>  <Parent>


>  <OneLetterCode>


>  <SubcomponentList>


>  <AmbiguousFlag>
N

>  <InChI>
InChI=1S/ClH/h1H/p-1

>  <InChIKey>
VEXZGXHMUGYJMC-UHFFFAOYSA-M

>  <SMILES>
[Cl-]

$$$$
3GUM_CL_A_165
  RCSB PDB12061708473D
Coordinates from PDB:3GUM:A:165 Model:1 without hydrogens
  1  0  0  0  0  0            999 V2000
   -9.7750    2.8870    0.4340  Cl 0  5  0  0  0  0  0  0  0  0  0  0
M  CHG  1   1  -1
M  END
>  <InstanceId>
3GUM_CL_A_165

>  <ChemCompId>
CL

>  <PdbId>
3GUM

>  <ChainId>
A

>  <ResidueNumber>
165

>  <InsertionCode>


>  <Model>
1

>  <AltIds>


>  <MissingHeavyAtoms>
0

>  <ObservedFormula>
Cl

>  <Name>
CHLORIDE ION

>  <SystematicName>
chloride

>  <Synonyms>


>  <Type>
NON-POLYMER

>  <Formula>
Cl

>  <MolecularWeight>
35.453

>  <ModifiedDate>
2011-06-04

>  <Parent>


>  <OneLetterCode>


>  <SubcomponentList>


>  <AmbiguousFlag>
N

>  <InChI>
InChI=1S/ClH/h1H/p-1

>  <InChIKey>
VEXZGXHMUGYJMC-UHFFFAOYSA-M

>  <SMILES>
[Cl-]

$$$$
3GUN_CL_A_166
  RCSB PDB12061708473D
Coordinates from PDB:3GUN:A:166 Model:1 without hydrogens
  1  0  0  0  0  0            999 V2000
   13.3480    6.6350  -15.4630  Cl 0  5  0  0  0  0  0  0  0  0  0  0
M  CHG  1   1  -1
M  END
>  <InstanceId>
3GUN_CL_A_166

>  <ChemCompId>
CL

>  <PdbId>
3GUN

>  <ChainId>
A

>  <ResidueNumber>
166

>  <InsertionCode>


>  <Model>
1

>  <AltIds>


>  <MissingHeavyAtoms>
0

>  <ObservedFormula>
Cl

>  <Name>
CHLORIDE ION

>  <SystematicName>
chloride

>  <Synonyms>


>  <Type>
NON-POLYMER

>  <Formula>
Cl

>  <MolecularWeight>
35.453

>  <ModifiedDate>
2011-06-04

>  <Parent>


>  <OneLetterCode>


>  <SubcomponentList>


>  <AmbiguousFlag>
N

>  <InChI>
InChI=1S/ClH/h1H/p-1

>  <InChIKey>
VEXZGXHMUGYJMC-UHFFFAOYSA-M

>  <SMILES>
[Cl-]

$$$$
3GUO_CL_A_165
  RCSB PDB12061708473D
Coordinates from PDB:3GUO:A:165 Model:1 without hydrogens
  1  0  0  0  0  0            999 V2000
   -9.6280    2.7250    0.3950  Cl 0  5  0  0  0  0  0  0  0  0  0  0
M  CHG  1   1  -1
M  END
>  <InstanceId>
3GUO_CL_A_165

>  <ChemCompId>
CL

>  <PdbId>
3GUO

>  <ChainId>
A

>  <ResidueNumber>
165

>  <InsertionCode>


>  <Model>
1

>  <AltIds>


>  <MissingHeavyAtoms>
0

>  <ObservedFormula>
Cl

>  <Name>
CHLORIDE ION

>  <SystematicName>
chloride

>  <Synonyms>


>  <Type>
NON-POLYMER

>  <Formula>
Cl

>  <MolecularWeight>
35.453

>  <ModifiedDate>
2011-06-04

>  <Parent>


>  <OneLetterCode>


>  <SubcomponentList>


>  <AmbiguousFlag>
N

>  <InChI>
InChI=1S/ClH/h1H/p-1

>  <InChIKey>
VEXZGXHMUGYJMC-UHFFFAOYSA-M

>  <SMILES>
[Cl-]

$$$$
3GUP_CL_A_167
  RCSB PDB12061708473D
Coordinates from PDB:3GUP:A:167 Model:1 without hydrogens
  1  0  0  0  0  0            999 V2000
  -13.4530   -6.5510   48.0730  Cl 0  5  0  0  0  0  0  0  0  0  0  0
M  CHG  1   1  -1
M  END
>  <InstanceId>
3GUP_CL_A_167

>  <ChemCompId>
CL

>  <PdbId>
3GUP

>  <ChainId>
A

>  <ResidueNumber>
167

>  <InsertionCode>


>  <Model>
1

>  <AltIds>


>  <MissingHeavyAtoms>
0

>  <ObservedFormula>
Cl

>  <Name>
CHLORIDE ION

>  <SystematicName>
chloride

>  <Synonyms>


>  <Type>
NON-POLYMER

>  <Formula>
Cl

>  <MolecularWeight>
35.453

>  <ModifiedDate>
2011-06-04

>  <Parent>


>  <OneLetterCode>


>  <SubcomponentList>


>  <AmbiguousFlag>
N

>  <InChI>
InChI=1S/ClH/h1H/p-1

>  <InChIKey>
VEXZGXHMUGYJMC-UHFFFAOYSA-M

>  <SMILES>
[Cl-]

$$$$
5JWS_CL_A_202
  RCSB PDB12061718313D
Coordinates from PDB:5JWS:A:202 Model:1 without hydrogens
  1  0  0  0  0  0            999 V2000
  -17.6910   16.0580    1.8900  Cl 0  5  0  0  0  0  0  0  0  0  0  0
M  CHG  1   1  -1
M  END
>  <InstanceId>
5JWS_CL_A_202

>  <ChemCompId>
CL

>  <PdbId>
5JWS

>  <ChainId>
A

>  <ResidueNumber>
202

>  <InsertionCode>


>  <Model>
1

>  <AltIds>


>  <MissingHeavyAtoms>
0

>  <ObservedFormula>
Cl

>  <Name>
CHLORIDE ION

>  <SystematicName>
chloride

>  <Synonyms>


>  <Type>
NON-POLYMER

>  <Formula>
Cl

>  <MolecularWeight>
35.453

>  <ModifiedDate>
2011-06-04

>  <Parent>


>  <OneLetterCode>


>  <SubcomponentList>


>  <AmbiguousFlag>
N

>  <InChI>
InChI=1S/ClH/h1H/p-1

>  <InChIKey>
VEXZGXHMUGYJMC-UHFFFAOYSA-M

>  <SMILES>
[Cl-]

$$$$
5JWU_CL_A_202
  RCSB PDB12061718313D
Coordinates from PDB:5JWU:A:202 Model:1 without hydrogens
  1  0  0  0  0  0            999 V2000
  -34.6460   16.8350   10.3630  Cl 0  5  0  0  0  0  0  0  0  0  0  0
M  CHG  1   1  -1
M  END
>  <InstanceId>
5JWU_CL_A_202

>  <ChemCompId>
CL

>  <PdbId>
5JWU

>  <ChainId>
A

>  <ResidueNumber>
202

>  <InsertionCode>


>  <Model>
1

>  <AltIds>


>  <MissingHeavyAtoms>
0

>  <ObservedFormula>
Cl

>  <Name>
CHLORIDE ION

>  <SystematicName>
chloride

>  <Synonyms>


>  <Type>
NON-POLYMER

>  <Formula>
Cl

>  <MolecularWeight>
35.453

>  <ModifiedDate>
2011-06-04

>  <Parent>


>  <OneLetterCode>


>  <SubcomponentList>


>  <AmbiguousFlag>
N

>  <InChI>
InChI=1S/ClH/h1H/p-1

>  <InChIKey>
VEXZGXHMUGYJMC-UHFFFAOYSA-M

>  <SMILES>
[Cl-]

$$$$
5JWW_CL_A_201
  RCSB PDB12061718313D
Coordinates from PDB:5JWW:A:201 Model:1 without hydrogens
  1  0  0  0  0  0            999 V2000
   -0.8050   32.2760   -8.4810  Cl 0  5  0  0  0  0  0  0  0  0  0  0
M  CHG  1   1  -1
M  END
>  <InstanceId>
5JWW_CL_A_201

>  <ChemCompId>
CL

>  <PdbId>
5JWW

>  <ChainId>
A

>  <ResidueNumber>
201

>  <InsertionCode>


>  <Model>
1

>  <AltIds>


>  <MissingHeavyAtoms>
0

>  <ObservedFormula>
Cl

>  <Name>
CHLORIDE ION

>  <SystematicName>
chloride

>  <Synonyms>


>  <Type>
NON-POLYMER

>  <Formula>
Cl

>  <MolecularWeight>
35.453

>  <ModifiedDate>
2011-06-04

>  <Parent>


>  <OneLetterCode>


>  <SubcomponentList>


>  <AmbiguousFlag>
N

>  <InChI>
InChI=1S/ClH/h1H/p-1

>  <InChIKey>
VEXZGXHMUGYJMC-UHFFFAOYSA-M

>  <SMILES>
[Cl-]

$$$$
3GUI_CO3_A_166
  RCSB PDB12061708473D
Coordinates from PDB:3GUI:A:166 Model:1 without hydrogens
  4  3  0  0  0  0            999 V2000
   36.2670  -23.1220   54.3250   C 0  0  0  0  0  0  0  0  0  0  0  0
   36.9920  -22.2880   55.0230   O 0  0  0  0  0  0  0  0  0  0  0  0
   34.9620  -23.0600   54.3440   O 0  5  0  0  0  0  0  0  0  0  0  0
   36.8600  -24.0260   53.6020   O 0  5  0  0  0  0  0  0  0  0  0  0
  1  2  2  0  0  0  0
  1  3  1  0  0  0  0
  1  4  1  0  0  0  0
M  CHG  2   3  -1   4  -1
M  END
>  <InstanceId>
3GUI_CO3_A_166

>  <ChemCompId>
CO3

>  <PdbId>
3GUI

>  <ChainId>
A

>  <ResidueNumber>
166

>  <InsertionCode>


>  <Model>
1

>  <AltIds>


>  <MissingHeavyAtoms>
0

>  <ObservedFormula>
C O3

>  <Name>
CARBONATE ION

>  <SystematicName>
carbonate

>  <Synonyms>


>  <Type>
NON-POLYMER

>  <Formula>
C O3

>  <MolecularWeight>
60.009

>  <ModifiedDate>
2011-06-04

>  <Parent>


>  <OneLetterCode>


>  <SubcomponentList>


>  <AmbiguousFlag>
N

>  <InChI>
InChI=1S/CH2O3/c2-1(3)4/h(H2,2,3,4)/p-2

>  <InChIKey>
BVKZGUZCCUSVTD-UHFFFAOYSA-L

>  <SMILES>
C(=O)([O-])[O-]

$$$$
3GUJ_CO3_A_166
  RCSB PDB12061708473D
Coordinates from PDB:3GUJ:A:166 Model:1 without hydrogens
  4  3  0  0  0  0            999 V2000
   18.6040    4.8390   53.6460   C 0  0  0  0  0  0  0  0  0  0  0  0
   18.5690    5.6000   54.6940   O 0  0  0  0  0  0  0  0  0  0  0  0
   19.7470    4.5270   53.1150   O 0  5  0  0  0  0  0  0  0  0  0  0
   17.4940    4.3980   53.1310   O 0  5  0  0  0  0  0  0  0  0  0  0
  1  2  2  0  0  0  0
  1  3  1  0  0  0  0
  1  4  1  0  0  0  0
M  CHG  2   3  -1   4  -1
M  END
>  <InstanceId>
3GUJ_CO3_A_166

>  <ChemCompId>
CO3

>  <PdbId>
3GUJ

>  <ChainId>
A

>  <ResidueNumber>
166

>  <InsertionCode>


>  <Model>
1

>  <AltIds>


>  <MissingHeavyAtoms>
0

>  <ObservedFormula>
C O3

>  <Name>
CARBONATE ION

>  <SystematicName>
carbonate

>  <Synonyms>


>  <Type>
NON-POLYMER

>  <Formula>
C O3

>  <MolecularWeight>
60.009

>  <ModifiedDate>
2011-06-04

>  <Parent>


>  <OneLetterCode>


>  <SubcomponentList>


>  <AmbiguousFlag>
N

>  <InChI>
InChI=1S/CH2O3/c2-1(3)4/h(H2,2,3,4)/p-2

>  <InChIKey>
BVKZGUZCCUSVTD-UHFFFAOYSA-L

>  <SMILES>
C(=O)([O-])[O-]

$$$$
3GUP_CO3_A_165
  RCSB PDB12061708473D
Coordinates from PDB:3GUP:A:165 Model:1 without hydrogens
  4  3  0  0  0  0            999 V2000
    9.7980   -8.1760   61.6210   C 0  0  0  0  0  0  0  0  0  0  0  0
    9.6240   -9.3080   62.2410   O 0  0  0  0  0  0  0  0  0  0  0  0
   10.5720   -7.2590   62.1510   O 0  5  0  0  0  0  0  0  0  0  0  0
    9.2020   -7.9750   60.4760   O 0  5  0  0  0  0  0  0  0  0  0  0
  1  2  2  0  0  0  0
  1  3  1  0  0  0  0
  1  4  1  0  0  0  0
M  CHG  2   3  -1   4  -1
M  END
>  <InstanceId>
3GUP_CO3_A_165

>  <ChemCompId>
CO3

>  <PdbId>
3GUP

>  <ChainId>
A

>  <ResidueNumber>
165

>  <InsertionCode>


>  <Model>
1

>  <AltIds>


>  <MissingHeavyAtoms>
0

>  <ObservedFormula>
C O3

>  <Name>
CARBONATE ION

>  <SystematicName>
carbonate

>  <Synonyms>


>  <Type>
NON-POLYMER

>  <Formula>
C O3

>  <MolecularWeight>
60.009

>  <ModifiedDate>
2011-06-04

>  <Parent>


>  <OneLetterCode>


>  <SubcomponentList>


>  <AmbiguousFlag>
N

>  <InChI>
InChI=1S/CH2O3/c2-1(3)4/h(H2,2,3,4)/p-2

>  <InChIKey>
BVKZGUZCCUSVTD-UHFFFAOYSA-L

>  <SMILES>
C(=O)([O-])[O-]

$$$$
183L_DEN_A_400
  RCSB PDB12061701563D
Coordinates from PDB:183L:A:400 Model:1 without hydrogens
  9 10  0  0  0  0            999 V2000
   27.8600    8.1280    4.2770   C 0  0  0  0  0  0  0  0  0  0  0  0
   28.3280    8.0190    2.8980   C 0  0  0  0  0  0  0  0  0  0  0  0
   27.8090    6.7540    2.3390   C 0  0  0  0  0  0  0  0  0  0  0  0
   26.3310    4.9670    3.4680   C 0  0  0  0  0  0  0  0  0  0  0  0
   25.6900    4.6140    4.6350   C 0  0  0  0  0  0  0  0  0  0  0  0
   25.7550    5.3850    5.7660   C 0  0  0  0  0  0  0  0  0  0  0  0
   26.4400    6.5710    5.7400   C 0  0  0  0  0  0  0  0  0  0  0  0
   27.0950    6.9300    4.5690   C 0  0  0  0  0  0  0  0  0  0  0  0
   27.0070    6.1430    3.4330   C 0  0  0  0  0  0  0  0  0  0  0  0
  1  2  1  0  0  0  0
  1  8  1  0  0  0  0
  2  3  2  0  0  0  0
  3  9  1  0  0  0  0
  4  5  2  0  0  0  0
  4  9  1  0  0  0  0
  5  6  1  0  0  0  0
  6  7  2  0  0  0  0
  7  8  1  0  0  0  0
  8  9  2  0  0  0  0
M  END
>  <InstanceId>
183L_DEN_A_400

>  <ChemCompId>
DEN

>  <PdbId>
183L

>  <ChainId>
A

>  <ResidueNumber>
400

>  <InsertionCode>


>  <Model>
1

>  <AltIds>


>  <MissingHeavyAtoms>
0

>  <ObservedFormula>
C9

>  <Name>
INDENE

>  <SystematicName>
1H-indene

>  <Synonyms>


>  <Type>
NON-POLYMER

>  <Formula>
C9 H8

>  <MolecularWeight>
116.16

>  <ModifiedDate>
2011-06-04

>  <Parent>


>  <OneLetterCode>


>  <SubcomponentList>


>  <AmbiguousFlag>
N

>  <InChI>
InChI=1S/C9H8/c1-2-5-9-7-3-6-8(9)4-1/h1-6H,7H2

>  <InChIKey>
YBYIRNPNPLQARY-UHFFFAOYSA-N

>  <SMILES>
c1ccc2c(c1)CC=C2

$$$$
3DKE_EPE_X_901
  RCSB PDB12061708203D
Coordinates from PDB:3DKE:X:901 Model:1 without hydrogens
 15 15  0  0  0  0            999 V2000
   26.2830   17.7460    1.1970   N 0  0  0  0  0  0  0  0  0  0  0  0
   26.3870   17.1180    2.5360   C 0  0  0  0  0  0  0  0  0  0  0  0
   25.1710   17.3040    3.4580   C 0  0  0  0  0  0  0  0  0  0  0  0
   24.6440   18.6510    3.3820   N 0  0  0  0  0  0  0  0  0  0  0  0
   25.5180   19.6170    2.7570   C 0  0  0  0  0  0  0  0  0  0  0  0
   25.8500   19.1690    1.3230   C 0  0  0  0  0  0  0  0  0  0  0  0
   23.2010   18.8540    3.3940   C 0  0  0  0  0  0  0  0  0  0  0  0
   22.6700   19.8440    2.3540   C 0  0  0  0  0  0  0  0  0  0  0  0
   21.2650   19.8980    2.4150   O 0  0  0  0  0  0  0  0  0  0  0  0
   27.5150   17.5510    0.4410   C 0  0  0  0  0  0  0  0  0  0  0  0
   28.7190   18.0200    1.2490   C 0  0  0  0  0  0  0  0  0  0  0  0
   30.0260   18.6440    0.1890   S 0  0  0  0  0  0  0  0  0  0  0  0
   31.0960   19.1070    1.0500   O 0  0  0  0  0  0  0  0  0  0  0  0
   29.4810   19.7530   -0.5780   O 0  0  0  0  0  0  0  0  0  0  0  0
   30.4700   17.5720   -0.6850   O 0  0  0  0  0  0  0  0  0  0  0  0
  1  2  1  0  0  0  0
  1  6  1  0  0  0  0
  1 10  1  0  0  0  0
  2  3  1  0  0  0  0
  3  4  1  0  0  0  0
  4  5  1  0  0  0  0
  4  7  1  0  0  0  0
  5  6  1  0  0  0  0
  7  8  1  0  0  0  0
  8  9  1  0  0  0  0
 10 11  1  0  0  0  0
 11 12  1  0  0  0  0
 12 13  2  0  0  0  0
 12 14  2  0  0  0  0
 12 15  1  0  0  0  0
M  END
>  <InstanceId>
3DKE_EPE_X_901

>  <ChemCompId>
EPE

>  <PdbId>
3DKE

>  <ChainId>
X

>  <ResidueNumber>
901

>  <InsertionCode>


>  <Model>
1

>  <AltIds>


>  <MissingHeavyAtoms>
0

>  <ObservedFormula>
C8 N2 O4 S

>  <Name>
4-(2-HYDROXYETHYL)-1-PIPERAZINE ETHANESULFONIC ACID

>  <SystematicName>
2-[4-(2-hydroxyethyl)piperazin-1-yl]ethanesulfonic acid

>  <Synonyms>
HEPES

>  <Type>
NON-POLYMER

>  <Formula>
C8 H18 N2 O4 S

>  <MolecularWeight>
238.305

>  <ModifiedDate>
2011-06-04

>  <Parent>


>  <OneLetterCode>


>  <SubcomponentList>


>  <AmbiguousFlag>
N

>  <InChI>
InChI=1S/C8H18N2O4S/c11-7-5-9-1-3-10(4-2-9)6-8-15(12,13)14/h11H,1-8H2,(H,12,13,14)

>  <InChIKey>
JKMHFZQWWAIEOD-UHFFFAOYSA-N

>  <SMILES>
C1CN(CCN1CCO)CCS(=O)(=O)O

$$$$
3GUJ_EPE_A_167
  RCSB PDB12061708473D
Coordinates from PDB:3GUJ:A:167 Model:1 without hydrogens
 15 15  0  0  0  0            999 V2000
   25.8380  -21.4860   46.6440   N 0  0  0  0  0  0  0  0  0  0  0  0
   26.0820  -21.2480   48.0780   C 0  0  0  0  0  0  0  0  0  0  0  0
   25.8460  -22.5470   48.8540   C 0  0  0  0  0  0  0  0  0  0  0  0
   24.5640  -23.1620   48.5300   N 0  0  0  0  0  0  0  0  0  0  0  0
   23.9310  -22.9640   47.2270   C 0  0  0  0  0  0  0  0  0  0  0  0
   24.3980  -21.7320   46.4480   C 0  0  0  0  0  0  0  0  0  0  0  0
   24.0480  -24.2630   49.3490   C 0  0  0  0  0  0  0  0  0  0  0  0
   24.9520  -25.4860   49.3760   C 0  0  0  0  0  0  0  0  0  0  0  0
   25.3110  -25.8590   48.0490   O 0  0  0  0  0  0  0  0  0  0  0  0
   26.2370  -20.2840   45.8860   C 0  0  0  0  0  0  0  0  0  0  0  0
   26.3070  -20.6160   44.3990   C 0  0  0  0  0  0  0  0  0  0  0  0
   26.3330  -19.1190   43.3820   S 0  0  0  0  0  0  0  0  0  0  0  0
   27.5450  -18.3820   43.7440   O 0  0  0  0  0  0  0  0  0  0  0  0
   25.1380  -18.3230   43.6420   O 0  0  0  0  0  0  0  0  0  0  0  0
   26.3800  -19.5280   41.9750   O 0  0  0  0  0  0  0  0  0  0  0  0
  1  2  1  0  0  0  0
  1  6  1  0  0  0  0
  1 10  1  0  0  0  0
  2  3  1  0  0  0  0
  3  4  1  0  0  0  0
  4  5  1  0  0  0  0
  4  7  1  0  0  0  0
  5  6  1  0  0  0  0
  7  8  1  0  0  0  0
  8  9  1  0  0  0  0
 10 11  1  0  0  0  0
 11 12  1  0  0  0  0
 12 13  2  0  0  0  0
 12 14  2  0  0  0  0
 12 15  1  0  0  0  0
M  END
>  <InstanceId>
3GUJ_EPE_A_167

>  <ChemCompId>
EPE

>  <PdbId>
3GUJ

>  <ChainId>
A

>  <ResidueNumber>
167

>  <InsertionCode>


>  <Model>
1

>  <AltIds>


>  <MissingHeavyAtoms>
0

>  <ObservedFormula>
C8 N2 O4 S

>  <Name>
4-(2-HYDROXYETHYL)-1-PIPERAZINE ETHANESULFONIC ACID

>  <SystematicName>
2-[4-(2-hydroxyethyl)piperazin-1-yl]ethanesulfonic acid

>  <Synonyms>
HEPES

>  <Type>
NON-POLYMER

>  <Formula>
C8 H18 N2 O4 S

>  <MolecularWeight>
238.305

>  <ModifiedDate>
2011-06-04

>  <Parent>


>  <OneLetterCode>


>  <SubcomponentList>


>  <AmbiguousFlag>
N

>  <InChI>
InChI=1S/C8H18N2O4S/c11-7-5-9-1-3-10(4-2-9)6-8-15(12,13)14/h11H,1-8H2,(H,12,13,14)

>  <InChIKey>
JKMHFZQWWAIEOD-UHFFFAOYSA-N

>  <SMILES>
C1CN(CCN1CCO)CCS(=O)(=O)O

$$$$
4W51_EPE_A_201
  RCSB PDB12061715543D
Coordinates from PDB:4W51:A:201 Model:1 without hydrogens
 15 15  0  0  0  0            999 V2000
   29.5960  -16.9260   13.1210   N 0  0  0  0  0  0  0  0  0  0  0  0
   29.9000  -15.4880   13.2090   C 0  0  0  0  0  0  0  0  0  0  0  0
   28.9110  -14.8140   14.1530   C 0  0  0  0  0  0  0  0  0  0  0  0
   27.5340  -15.1500   13.8440   N 0  0  0  0  0  0  0  0  0  0  0  0
   27.2420  -16.5450   13.5640   C 0  0  0  0  0  0  0  0  0  0  0  0
   28.2470  -17.1300   12.5830   C 0  0  0  0  0  0  0  0  0  0  0  0
   26.4920  -14.3840   14.5150   C 0  0  0  0  0  0  0  0  0  0  0  0
   26.5830  -14.4750   16.0340   C 0  0  0  0  0  0  0  0  0  0  0  0
   26.5430  -15.8310   16.4410   O 0  0  0  0  0  0  0  0  0  0  0  0
   30.5530  -17.5840   12.2270   C 0  0  0  0  0  0  0  0  0  0  0  0
   30.8800  -18.9430   12.8230   C 0  0  0  0  0  0  0  0  0  0  0  0
   32.3540  -19.6630   12.0710   S 0  0  0  0  0  0  0  0  0  0  0  0
   32.4770  -21.0540   12.5000   O 0  0  0  0  0  0  0  0  0  0  0  0
   32.2230  -19.6060   10.6160   O 0  0  0  0  0  0  0  0  0  0  0  0
   33.5180  -18.8980   12.5100   O 0  0  0  0  0  0  0  0  0  0  0  0
  1  2  1  0  0  0  0
  1  6  1  0  0  0  0
  1 10  1  0  0  0  0
  2  3  1  0  0  0  0
  3  4  1  0  0  0  0
  4  5  1  0  0  0  0
  4  7  1  0  0  0  0
  5  6  1  0  0  0  0
  7  8  1  0  0  0  0
  8  9  1  0  0  0  0
 10 11  1  0  0  0  0
 11 12  1  0  0  0  0
 12 13  2  0  0  0  0
 12 14  2  0  0  0  0
 12 15  1  0  0  0  0
M  END
>  <InstanceId>
4W51_EPE_A_201

>  <ChemCompId>
EPE

>  <PdbId>
4W51

>  <ChainId>
A

>  <ResidueNumber>
201

>  <InsertionCode>


>  <Model>
1

>  <AltIds>


>  <MissingHeavyAtoms>
0

>  <ObservedFormula>
C8 N2 O4 S

>  <Name>
4-(2-HYDROXYETHYL)-1-PIPERAZINE ETHANESULFONIC ACID

>  <SystematicName>
2-[4-(2-hydroxyethyl)piperazin-1-yl]ethanesulfonic acid

>  <Synonyms>
HEPES

>  <Type>
NON-POLYMER

>  <Formula>
C8 H18 N2 O4 S

>  <MolecularWeight>
238.305

>  <ModifiedDate>
2011-06-04

>  <Parent>


>  <OneLetterCode>


>  <SubcomponentList>


>  <AmbiguousFlag>
N

>  <InChI>
InChI=1S/C8H18N2O4S/c11-7-5-9-1-3-10(4-2-9)6-8-15(12,13)14/h11H,1-8H2,(H,12,13,14)

>  <InChIKey>
JKMHFZQWWAIEOD-UHFFFAOYSA-N

>  <SMILES>
C1CN(CCN1CCO)CCS(=O)(=O)O

$$$$
4W52_EPE_A_201
  RCSB PDB12061715543D
Coordinates from PDB:4W52:A:201 Model:1 without hydrogens
 15 15  0  0  0  0            999 V2000
  -29.7830   16.9570   13.1410   N 0  0  0  0  0  0  0  0  0  0  0  0
  -29.9710   15.4910   13.1910   C 0  0  0  0  0  0  0  0  0  0  0  0
  -28.9220   14.8610   14.0940   C 0  0  0  0  0  0  0  0  0  0  0  0
  -27.5810   15.2340   13.6930   N 0  0  0  0  0  0  0  0  0  0  0  0
  -27.3780   16.6610   13.5030   C 0  0  0  0  0  0  0  0  0  0  0  0
  -28.4500   17.2510   12.5850   C 0  0  0  0  0  0  0  0  0  0  0  0
  -26.5210   14.5240   14.4230   C 0  0  0  0  0  0  0  0  0  0  0  0
  -26.6300   14.5300   15.9510   C 0  0  0  0  0  0  0  0  0  0  0  0
  -26.6080   15.8710   16.4190   O 0  0  0  0  0  0  0  0  0  0  0  0
  -30.8290   17.5120   12.2540   C 0  0  0  0  0  0  0  0  0  0  0  0
  -30.7540   19.0320   12.3550   C 0  0  0  0  0  0  0  0  0  0  0  0
  -32.3280   19.7980   11.8950   S 0  0  0  0  0  0  0  0  0  0  0  0
  -32.2980   21.2130   12.2660   O 0  0  0  0  0  0  0  0  0  0  0  0
  -32.4970   19.6480   10.4440   O 0  0  0  0  0  0  0  0  0  0  0  0
  -33.3810   19.0720   12.6100   O 0  0  0  0  0  0  0  0  0  0  0  0
  1  2  1  0  0  0  0
  1  6  1  0  0  0  0
  1 10  1  0  0  0  0
  2  3  1  0  0  0  0
  3  4  1  0  0  0  0
  4  5  1  0  0  0  0
  4  7  1  0  0  0  0
  5  6  1  0  0  0  0
  7  8  1  0  0  0  0
  8  9  1  0  0  0  0
 10 11  1  0  0  0  0
 11 12  1  0  0  0  0
 12 13  2  0  0  0  0
 12 14  2  0  0  0  0
 12 15  1  0  0  0  0
M  END
>  <InstanceId>
4W52_EPE_A_201

>  <ChemCompId>
EPE

>  <PdbId>
4W52

>  <ChainId>
A

>  <ResidueNumber>
201

>  <InsertionCode>


>  <Model>
1

>  <AltIds>


>  <MissingHeavyAtoms>
0

>  <ObservedFormula>
C8 N2 O4 S

>  <Name>
4-(2-HYDROXYETHYL)-1-PIPERAZINE ETHANESULFONIC ACID

>  <SystematicName>
2-[4-(2-hydroxyethyl)piperazin-1-yl]ethanesulfonic acid

>  <Synonyms>
HEPES

>  <Type>
NON-POLYMER

>  <Formula>
C8 H18 N2 O4 S

>  <MolecularWeight>
238.305

>  <ModifiedDate>
2011-06-04

>  <Parent>


>  <OneLetterCode>


>  <SubcomponentList>


>  <AmbiguousFlag>
N

>  <InChI>
InChI=1S/C8H18N2O4S/c11-7-5-9-1-3-10(4-2-9)6-8-15(12,13)14/h11H,1-8H2,(H,12,13,14)

>  <InChIKey>
JKMHFZQWWAIEOD-UHFFFAOYSA-N

>  <SMILES>
C1CN(CCN1CCO)CCS(=O)(=O)O

$$$$
4W53_EPE_A_201
  RCSB PDB12061715543D
Coordinates from PDB:4W53:A:201 Model:1 without hydrogens
 15 15  0  0  0  0            999 V2000
  -29.8730   16.8340   13.2480   N 0  0  0  0  0  0  0  0  0  0  0  0
  -28.5750   17.2010   12.6560   C 0  0  0  0  0  0  0  0  0  0  0  0
  -27.4590   16.5820   13.5070   C 0  0  0  0  0  0  0  0  0  0  0  0
  -27.6420   15.1520   13.7650   N 0  0  0  0  0  0  0  0  0  0  0  0
  -28.9870   14.7900   14.1670   C 0  0  0  0  0  0  0  0  0  0  0  0
  -29.9780   15.3710   13.1620   C 0  0  0  0  0  0  0  0  0  0  0  0
  -26.5540   14.4710   14.4800   C 0  0  0  0  0  0  0  0  0  0  0  0
  -26.6910   14.4770   15.9980   C 0  0  0  0  0  0  0  0  0  0  0  0
  -26.6510   15.8200   16.4470   O 0  0  0  0  0  0  0  0  0  0  0  0
  -31.0180   17.4240   12.5260   C 0  0  0  0  0  0  0  0  0  0  0  0
  -30.7460   18.8850   12.2110   C 0  0  0  0  0  0  0  0  0  0  0  0
  -32.3490   19.6710   11.9380   S 0  0  0  0  0  0  0  0  0  0  0  0
  -33.3750   18.7840   12.4710   O 0  0  0  0  0  0  0  0  0  0  0  0
  -32.5050   19.8410   10.4910   O 0  0  0  0  0  0  0  0  0  0  0  0
  -32.3980   20.9550   12.6330   O 0  0  0  0  0  0  0  0  0  0  0  0
  1  2  1  0  0  0  0
  1  6  1  0  0  0  0
  1 10  1  0  0  0  0
  2  3  1  0  0  0  0
  3  4  1  0  0  0  0
  4  5  1  0  0  0  0
  4  7  1  0  0  0  0
  5  6  1  0  0  0  0
  7  8  1  0  0  0  0
  8  9  1  0  0  0  0
 10 11  1  0  0  0  0
 11 12  1  0  0  0  0
 12 13  2  0  0  0  0
 12 14  2  0  0  0  0
 12 15  1  0  0  0  0
M  END
>  <InstanceId>
4W53_EPE_A_201

>  <ChemCompId>
EPE

>  <PdbId>
4W53

>  <ChainId>
A

>  <ResidueNumber>
201

>  <InsertionCode>


>  <Model>
1

>  <AltIds>


>  <MissingHeavyAtoms>
0

>  <ObservedFormula>
C8 N2 O4 S

>  <Name>
4-(2-HYDROXYETHYL)-1-PIPERAZINE ETHANESULFONIC ACID

>  <SystematicName>
2-[4-(2-hydroxyethyl)piperazin-1-yl]ethanesulfonic acid

>  <Synonyms>
HEPES

>  <Type>
NON-POLYMER

>  <Formula>
C8 H18 N2 O4 S

>  <MolecularWeight>
238.305

>  <ModifiedDate>
2011-06-04

>  <Parent>


>  <OneLetterCode>


>  <SubcomponentList>


>  <AmbiguousFlag>
N

>  <InChI>
InChI=1S/C8H18N2O4S/c11-7-5-9-1-3-10(4-2-9)6-8-15(12,13)14/h11H,1-8H2,(H,12,13,14)

>  <InChIKey>
JKMHFZQWWAIEOD-UHFFFAOYSA-N

>  <SMILES>
C1CN(CCN1CCO)CCS(=O)(=O)O

$$$$
4W54_EPE_A_201
  RCSB PDB12061715543D
Coordinates from PDB:4W54:A:201 Model:1 without hydrogens
 15 15  0  0  0  0            999 V2000
   30.4860  -18.0290    2.9540   N 0  0  0  0  0  0  0  0  0  0  0  0
   31.8400  -18.5970    2.9040   C 0  0  0  0  0  0  0  0  0  0  0  0
   31.8420  -19.8110    1.9810   C 0  0  0  0  0  0  0  0  0  0  0  0
   30.7800  -20.7460    2.2970   N 0  0  0  0  0  0  0  0  0  0  0  0
   29.4820  -20.2320    2.7010   C 0  0  0  0  0  0  0  0  0  0  0  0
   29.5820  -18.9980    3.5890   C 0  0  0  0  0  0  0  0  0  0  0  0
   30.8340  -22.0760    1.7140   C 0  0  0  0  0  0  0  0  0  0  0  0
   30.7400  -22.0670    0.1910   C 0  0  0  0  0  0  0  0  0  0  0  0
   29.7970  -21.1020   -0.2310   O 0  0  0  0  0  0  0  0  0  0  0  0
   30.4990  -16.7950    3.7490   C 0  0  0  0  0  0  0  0  0  0  0  0
   30.4320  -15.5970    2.8120   C 0  0  0  0  0  0  0  0  0  0  0  0
   29.9990  -14.0830    3.7010   S 0  0  0  0  0  0  0  0  0  0  0  0
   28.5450  -13.9640    3.7750   O 0  0  0  0  0  0  0  0  0  0  0  0
   30.5540  -12.9330    2.9910   O 0  0  0  0  0  0  0  0  0  0  0  0
   30.5480  -14.1420    5.0520   O 0  0  0  0  0  0  0  0  0  0  0  0
  1  2  1  0  0  0  0
  1  6  1  0  0  0  0
  1 10  1  0  0  0  0
  2  3  1  0  0  0  0
  3  4  1  0  0  0  0
  4  5  1  0  0  0  0
  4  7  1  0  0  0  0
  5  6  1  0  0  0  0
  7  8  1  0  0  0  0
  8  9  1  0  0  0  0
 10 11  1  0  0  0  0
 11 12  1  0  0  0  0
 12 13  2  0  0  0  0
 12 14  2  0  0  0  0
 12 15  1  0  0  0  0
M  END
>  <InstanceId>
4W54_EPE_A_201

>  <ChemCompId>
EPE

>  <PdbId>
4W54

>  <ChainId>
A

>  <ResidueNumber>
201

>  <InsertionCode>


>  <Model>
1

>  <AltIds>


>  <MissingHeavyAtoms>
0

>  <ObservedFormula>
C8 N2 O4 S

>  <Name>
4-(2-HYDROXYETHYL)-1-PIPERAZINE ETHANESULFONIC ACID

>  <SystematicName>
2-[4-(2-hydroxyethyl)piperazin-1-yl]ethanesulfonic acid

>  <Synonyms>
HEPES

>  <Type>
NON-POLYMER

>  <Formula>
C8 H18 N2 O4 S

>  <MolecularWeight>
238.305

>  <ModifiedDate>
2011-06-04

>  <Parent>


>  <OneLetterCode>


>  <SubcomponentList>


>  <AmbiguousFlag>
N

>  <InChI>
InChI=1S/C8H18N2O4S/c11-7-5-9-1-3-10(4-2-9)6-8-15(12,13)14/h11H,1-8H2,(H,12,13,14)

>  <InChIKey>
JKMHFZQWWAIEOD-UHFFFAOYSA-N

>  <SMILES>
C1CN(CCN1CCO)CCS(=O)(=O)O

$$$$
4W55_EPE_A_201
  RCSB PDB12061715543D
Coordinates from PDB:4W55:A:201 Model:1 without hydrogens
 15 15  0  0  0  0            999 V2000
  -30.5510   17.9910    2.7620   N 0  0  0  0  0  0  0  0  0  0  0  0
  -29.5410   18.8640    3.3920   C 0  0  0  0  0  0  0  0  0  0  0  0
  -29.4810   20.2020    2.6270   C 0  0  0  0  0  0  0  0  0  0  0  0
  -30.8080   20.7360    2.3010   N 0  0  0  0  0  0  0  0  0  0  0  0
  -31.8270   19.7920    1.8960   C 0  0  0  0  0  0  0  0  0  0  0  0
  -31.8660   18.6230    2.8670   C 0  0  0  0  0  0  0  0  0  0  0  0
  -30.8580   22.0400    1.6340   C 0  0  0  0  0  0  0  0  0  0  0  0
  -30.8700   21.9680    0.1090   C 0  0  0  0  0  0  0  0  0  0  0  0
  -29.7600   21.2190   -0.3410   O 0  0  0  0  0  0  0  0  0  0  0  0
  -30.6560   16.6380    3.3260   C 0  0  0  0  0  0  0  0  0  0  0  0
  -29.3160   16.1700    3.8600   C 0  0  0  0  0  0  0  0  0  0  0  0
  -29.4060   14.3730    4.0550   S 0  0  0  0  0  0  0  0  0  0  0  0
  -30.6180   13.8750    3.4030   O 0  0  0  0  0  0  0  0  0  0  0  0
  -28.2310   13.7860    3.4150   O 0  0  0  0  0  0  0  0  0  0  0  0
  -29.4260   14.0740    5.4890   O 0  0  0  0  0  0  0  0  0  0  0  0
  1  2  1  0  0  0  0
  1  6  1  0  0  0  0
  1 10  1  0  0  0  0
  2  3  1  0  0  0  0
  3  4  1  0  0  0  0
  4  5  1  0  0  0  0
  4  7  1  0  0  0  0
  5  6  1  0  0  0  0
  7  8  1  0  0  0  0
  8  9  1  0  0  0  0
 10 11  1  0  0  0  0
 11 12  1  0  0  0  0
 12 13  2  0  0  0  0
 12 14  2  0  0  0  0
 12 15  1  0  0  0  0
M  END
>  <InstanceId>
4W55_EPE_A_201

>  <ChemCompId>
EPE

>  <PdbId>
4W55

>  <ChainId>
A

>  <ResidueNumber>
201

>  <InsertionCode>


>  <Model>
1

>  <AltIds>


>  <MissingHeavyAtoms>
0

>  <ObservedFormula>
C8 N2 O4 S

>  <Name>
4-(2-HYDROXYETHYL)-1-PIPERAZINE ETHANESULFONIC ACID

>  <SystematicName>
2-[4-(2-hydroxyethyl)piperazin-1-yl]ethanesulfonic acid

>  <Synonyms>
HEPES

>  <Type>
NON-POLYMER

>  <Formula>
C8 H18 N2 O4 S

>  <MolecularWeight>
238.305

>  <ModifiedDate>
2011-06-04

>  <Parent>


>  <OneLetterCode>


>  <SubcomponentList>


>  <AmbiguousFlag>
N

>  <InChI>
InChI=1S/C8H18N2O4S/c11-7-5-9-1-3-10(4-2-9)6-8-15(12,13)14/h11H,1-8H2,(H,12,13,14)

>  <InChIKey>
JKMHFZQWWAIEOD-UHFFFAOYSA-N

>  <SMILES>
C1CN(CCN1CCO)CCS(=O)(=O)O

$$$$
4W56_EPE_A_201
  RCSB PDB12061715543D
Coordinates from PDB:4W56:A:201 Model:1 without hydrogens
 15 15  0  0  0  0            999 V2000
   30.8370  -17.3040   -2.9140   N 0  0  0  0  0  0  0  0  0  0  0  0
   31.9710  -18.2370   -2.8550   C 0  0  0  0  0  0  0  0  0  0  0  0
   33.0460  -17.6770   -1.9270   C 0  0  0  0  0  0  0  0  0  0  0  0
   33.3960  -16.3110   -2.2620   N 0  0  0  0  0  0  0  0  0  0  0  0
   32.3180  -15.3980   -2.6070   C 0  0  0  0  0  0  0  0  0  0  0  0
   31.2810  -16.0410   -3.5200   C 0  0  0  0  0  0  0  0  0  0  0  0
   34.5590  -15.7380   -1.6020   C 0  0  0  0  0  0  0  0  0  0  0  0
   34.4350  -15.7680   -0.0830   C 0  0  0  0  0  0  0  0  0  0  0  0
   33.2160  -15.1690    0.2950   O 0  0  0  0  0  0  0  0  0  0  0  0
   29.7730  -17.8870   -3.7450   C 0  0  0  0  0  0  0  0  0  0  0  0
   28.8190  -18.6570   -2.8460   C 0  0  0  0  0  0  0  0  0  0  0  0
   27.2310  -18.9730   -3.6530   S 0  0  0  0  0  0  0  0  0  0  0  0
   27.4500  -19.2800   -5.0650   O 0  0  0  0  0  0  0  0  0  0  0  0
   26.3880  -17.7840   -3.5470   O 0  0  0  0  0  0  0  0  0  0  0  0
   26.5890  -20.1070   -2.9930   O 0  0  0  0  0  0  0  0  0  0  0  0
  1  2  1  0  0  0  0
  1  6  1  0  0  0  0
  1 10  1  0  0  0  0
  2  3  1  0  0  0  0
  3  4  1  0  0  0  0
  4  5  1  0  0  0  0
  4  7  1  0  0  0  0
  5  6  1  0  0  0  0
  7  8  1  0  0  0  0
  8  9  1  0  0  0  0
 10 11  1  0  0  0  0
 11 12  1  0  0  0  0
 12 13  2  0  0  0  0
 12 14  2  0  0  0  0
 12 15  1  0  0  0  0
M  END
>  <InstanceId>
4W56_EPE_A_201

>  <ChemCompId>
EPE

>  <PdbId>
4W56

>  <ChainId>
A

>  <ResidueNumber>
201

>  <InsertionCode>


>  <Model>
1

>  <AltIds>


>  <MissingHeavyAtoms>
0

>  <ObservedFormula>
C8 N2 O4 S

>  <Name>
4-(2-HYDROXYETHYL)-1-PIPERAZINE ETHANESULFONIC ACID

>  <SystematicName>
2-[4-(2-hydroxyethyl)piperazin-1-yl]ethanesulfonic acid

>  <Synonyms>
HEPES

>  <Type>
NON-POLYMER

>  <Formula>
C8 H18 N2 O4 S

>  <MolecularWeight>
238.305

>  <ModifiedDate>
2011-06-04

>  <Parent>


>  <OneLetterCode>


>  <SubcomponentList>


>  <AmbiguousFlag>
N

>  <InChI>
InChI=1S/C8H18N2O4S/c11-7-5-9-1-3-10(4-2-9)6-8-15(12,13)14/h11H,1-8H2,(H,12,13,14)

>  <InChIKey>
JKMHFZQWWAIEOD-UHFFFAOYSA-N

>  <SMILES>
C1CN(CCN1CCO)CCS(=O)(=O)O

$$$$
4W57_EPE_A_201
  RCSB PDB12061715543D
Coordinates from PDB:4W57:A:201 Model:1 without hydrogens
 15 15  0  0  0  0            999 V2000
  -30.7900   17.9960    2.6570   N 0  0  0  0  0  0  0  0  0  0  0  0
  -29.6690   18.7070    3.2860   C 0  0  0  0  0  0  0  0  0  0  0  0
  -29.5320   20.0830    2.6270   C 0  0  0  0  0  0  0  0  0  0  0  0
  -30.7930   20.7590    2.3330   N 0  0  0  0  0  0  0  0  0  0  0  0
  -31.9690   19.9630    2.0420   C 0  0  0  0  0  0  0  0  0  0  0  0
  -32.0270   18.7300    2.9300   C 0  0  0  0  0  0  0  0  0  0  0  0
  -30.7270   22.0760    1.7150   C 0  0  0  0  0  0  0  0  0  0  0  0
  -30.7830   22.0300    0.1910   C 0  0  0  0  0  0  0  0  0  0  0  0
  -29.8240   21.1190   -0.3060   O 0  0  0  0  0  0  0  0  0  0  0  0
  -30.9210   16.5810    3.0420   C 0  0  0  0  0  0  0  0  0  0  0  0
  -29.7080   16.0770    3.8080   C 0  0  0  0  0  0  0  0  0  0  0  0
  -29.7790   14.2740    3.9790   S 0  0  0  0  0  0  0  0  0  0  0  0
  -30.7660   13.7270    3.0520   O 0  0  0  0  0  0  0  0  0  0  0  0
  -28.4660   13.7110    3.6740   O 0  0  0  0  0  0  0  0  0  0  0  0
  -30.1630   13.9350    5.3470   O 0  0  0  0  0  0  0  0  0  0  0  0
  1  2  1  0  0  0  0
  1  6  1  0  0  0  0
  1 10  1  0  0  0  0
  2  3  1  0  0  0  0
  3  4  1  0  0  0  0
  4  5  1  0  0  0  0
  4  7  1  0  0  0  0
  5  6  1  0  0  0  0
  7  8  1  0  0  0  0
  8  9  1  0  0  0  0
 10 11  1  0  0  0  0
 11 12  1  0  0  0  0
 12 13  2  0  0  0  0
 12 14  2  0  0  0  0
 12 15  1  0  0  0  0
M  END
>  <InstanceId>
4W57_EPE_A_201

>  <ChemCompId>
EPE

>  <PdbId>
4W57

>  <ChainId>
A

>  <ResidueNumber>
201

>  <InsertionCode>


>  <Model>
1

>  <AltIds>


>  <MissingHeavyAtoms>
0

>  <ObservedFormula>
C8 N2 O4 S

>  <Name>
4-(2-HYDROXYETHYL)-1-PIPERAZINE ETHANESULFONIC ACID

>  <SystematicName>
2-[4-(2-hydroxyethyl)piperazin-1-yl]ethanesulfonic acid

>  <Synonyms>
HEPES

>  <Type>
NON-POLYMER

>  <Formula>
C8 H18 N2 O4 S

>  <MolecularWeight>
238.305

>  <ModifiedDate>
2011-06-04

>  <Parent>


>  <OneLetterCode>


>  <SubcomponentList>


>  <AmbiguousFlag>
N

>  <InChI>
InChI=1S/C8H18N2O4S/c11-7-5-9-1-3-10(4-2-9)6-8-15(12,13)14/h11H,1-8H2,(H,12,13,14)

>  <InChIKey>
JKMHFZQWWAIEOD-UHFFFAOYSA-N

>  <SMILES>
C1CN(CCN1CCO)CCS(=O)(=O)O

$$$$
4W58_EPE_A_201
  RCSB PDB12061715543D
Coordinates from PDB:4W58:A:201 Model:1 without hydrogens
 15 15  0  0  0  0            999 V2000
  -29.9900   16.8970   13.3850   N 0  0  0  0  0  0  0  0  0  0  0  0
  -30.1800   15.4280   13.3910   C 0  0  0  0  0  0  0  0  0  0  0  0
  -29.1120   14.7410   14.2440   C 0  0  0  0  0  0  0  0  0  0  0  0
  -27.7780   15.1650   13.8680   N 0  0  0  0  0  0  0  0  0  0  0  0
  -27.5670   16.5620   13.5360   C 0  0  0  0  0  0  0  0  0  0  0  0
  -28.7090   17.1960   12.7340   C 0  0  0  0  0  0  0  0  0  0  0  0
  -26.6550   14.4890   14.5220   C 0  0  0  0  0  0  0  0  0  0  0  0
  -26.7230   14.4690   16.0410   C 0  0  0  0  0  0  0  0  0  0  0  0
  -26.9350   15.7850   16.5320   O 0  0  0  0  0  0  0  0  0  0  0  0
  -31.0390   17.5250   12.5540   C 0  0  0  0  0  0  0  0  0  0  0  0
  -32.0650   18.1930   13.4430   C 0  0  0  0  0  0  0  0  0  0  0  0
  -33.0680   19.3900   12.5280   S 0  0  0  0  0  0  0  0  0  0  0  0
  -32.4820   20.7230   12.6580   O 0  0  0  0  0  0  0  0  0  0  0  0
  -33.1030   19.0860   11.1030   O 0  0  0  0  0  0  0  0  0  0  0  0
  -34.4120   19.3340   13.0950   O 0  0  0  0  0  0  0  0  0  0  0  0
  1  2  1  0  0  0  0
  1  6  1  0  0  0  0
  1 10  1  0  0  0  0
  2  3  1  0  0  0  0
  3  4  1  0  0  0  0
  4  5  1  0  0  0  0
  4  7  1  0  0  0  0
  5  6  1  0  0  0  0
  7  8  1  0  0  0  0
  8  9  1  0  0  0  0
 10 11  1  0  0  0  0
 11 12  1  0  0  0  0
 12 13  2  0  0  0  0
 12 14  2  0  0  0  0
 12 15  1  0  0  0  0
M  END
>  <InstanceId>
4W58_EPE_A_201

>  <ChemCompId>
EPE

>  <PdbId>
4W58

>  <ChainId>
A

>  <ResidueNumber>
201

>  <InsertionCode>


>  <Model>
1

>  <AltIds>


>  <MissingHeavyAtoms>
0

>  <ObservedFormula>
C8 N2 O4 S

>  <Name>
4-(2-HYDROXYETHYL)-1-PIPERAZINE ETHANESULFONIC ACID

>  <SystematicName>
2-[4-(2-hydroxyethyl)piperazin-1-yl]ethanesulfonic acid

>  <Synonyms>
HEPES

>  <Type>
NON-POLYMER

>  <Formula>
C8 H18 N2 O4 S

>  <MolecularWeight>
238.305

>  <ModifiedDate>
2011-06-04

>  <Parent>


>  <OneLetterCode>


>  <SubcomponentList>


>  <AmbiguousFlag>
N

>  <InChI>
InChI=1S/C8H18N2O4S/c11-7-5-9-1-3-10(4-2-9)6-8-15(12,13)14/h11H,1-8H2,(H,12,13,14)

>  <InChIKey>
JKMHFZQWWAIEOD-UHFFFAOYSA-N

>  <SMILES>
C1CN(CCN1CCO)CCS(=O)(=O)O

$$$$
4W59_EPE_A_201
  RCSB PDB12061715543D
Coordinates from PDB:4W59:A:201 Model:1 without hydrogens
 15 15  0  0  0  0            999 V2000
  -29.8940   16.8580   13.4670   N 0  0  0  0  0  0  0  0  0  0  0  0
  -28.6340   17.1370   12.8230   C 0  0  0  0  0  0  0  0  0  0  0  0
  -27.4430   16.5370   13.5560   C 0  0  0  0  0  0  0  0  0  0  0  0
  -27.6720   15.1290   13.8540   N 0  0  0  0  0  0  0  0  0  0  0  0
  -28.9920   14.8060   14.2670   C 0  0  0  0  0  0  0  0  0  0  0  0
  -30.0150   15.4380   13.3530   C 0  0  0  0  0  0  0  0  0  0  0  0
  -26.5740   14.4860   14.5420   C 0  0  0  0  0  0  0  0  0  0  0  0
  -26.6230   14.5410   16.0560   C 0  0  0  0  0  0  0  0  0  0  0  0
  -26.5540   15.8590   16.4900   O 0  0  0  0  0  0  0  0  0  0  0  0
  -30.9960   17.3700   12.6710   C 0  0  0  0  0  0  0  0  0  0  0  0
  -31.7110   18.3880   13.4610   C 0  0  0  0  0  0  0  0  0  0  0  0
  -32.7730   19.5000   12.5370   S 0  0  0  0  0  0  0  0  0  0  0  0
  -32.6660   19.4320   11.1870   O 0  0  0  0  0  0  0  0  0  0  0  0
  -32.4900   20.8350   12.8790   O 0  0  0  0  0  0  0  0  0  0  0  0
  -33.8930   19.0020   13.0300   O 0  0  0  0  0  0  0  0  0  0  0  0
  1  2  1  0  0  0  0
  1  6  1  0  0  0  0
  1 10  1  0  0  0  0
  2  3  1  0  0  0  0
  3  4  1  0  0  0  0
  4  5  1  0  0  0  0
  4  7  1  0  0  0  0
  5  6  1  0  0  0  0
  7  8  1  0  0  0  0
  8  9  1  0  0  0  0
 10 11  1  0  0  0  0
 11 12  1  0  0  0  0
 12 13  2  0  0  0  0
 12 14  2  0  0  0  0
 12 15  1  0  0  0  0
M  END
>  <InstanceId>
4W59_EPE_A_201

>  <ChemCompId>
EPE

>  <PdbId>
4W59

>  <ChainId>
A

>  <ResidueNumber>
201

>  <InsertionCode>


>  <Model>
1

>  <AltIds>


>  <MissingHeavyAtoms>
0

>  <ObservedFormula>
C8 N2 O4 S

>  <Name>
4-(2-HYDROXYETHYL)-1-PIPERAZINE ETHANESULFONIC ACID

>  <SystematicName>
2-[4-(2-hydroxyethyl)piperazin-1-yl]ethanesulfonic acid

>  <Synonyms>
HEPES

>  <Type>
NON-POLYMER

>  <Formula>
C8 H18 N2 O4 S

>  <MolecularWeight>
238.305

>  <ModifiedDate>
2011-06-04

>  <Parent>


>  <OneLetterCode>


>  <SubcomponentList>


>  <AmbiguousFlag>
N

>  <InChI>
InChI=1S/C8H18N2O4S/c11-7-5-9-1-3-10(4-2-9)6-8-15(12,13)14/h11H,1-8H2,(H,12,13,14)

>  <InChIKey>
JKMHFZQWWAIEOD-UHFFFAOYSA-N

>  <SMILES>
C1CN(CCN1CCO)CCS(=O)(=O)O

$$$$
4I7P_ES3_A_202
  RCSB PDB12061712583D
Coordinates from PDB:4I7P:A:202 Model:1 without hydrogens
  6  6  0  0  0  0            999 V2000
    2.1050    7.3970    1.0260  Br 0  0  0  0  0  0  0  0  0  0  0  0
    3.4590    8.7240    0.9910   C 0  0  0  0  0  0  0  0  0  0  0  0
    3.5610    9.8170    1.7550   C 0  0  0  0  0  0  0  0  0  0  0  0
    4.6740   10.4140    1.3460   N 0  0  0  0  0  0  0  0  0  0  0  0
    5.2160    9.7170    0.3680   C 0  0  0  0  0  0  0  0  0  0  0  0
    4.4680    8.6370    0.1490   N 0  0  0  0  0  0  0  0  0  0  0  0
  1  2  1  0  0  0  0
  2  3  2  0  0  0  0
  2  6  1  0  0  0  0
  3  4  1  0  0  0  0
  4  5  1  0  0  0  0
  5  6  2  0  0  0  0
M  END
>  <InstanceId>
4I7P_ES3_A_202

>  <ChemCompId>
ES3

>  <PdbId>
4I7P

>  <ChainId>
A

>  <ResidueNumber>
202

>  <InsertionCode>


>  <Model>
1

>  <AltIds>


>  <MissingHeavyAtoms>
0

>  <ObservedFormula>
C3 N2 Br

>  <Name>
4-bromo-1H-imidazole

>  <SystematicName>
4-bromo-1H-imidazole

>  <Synonyms>


>  <Type>
NON-POLYMER

>  <Formula>
C3 H3 Br N2

>  <MolecularWeight>
146.973

>  <ModifiedDate>
2011-06-04

>  <Parent>


>  <OneLetterCode>


>  <SubcomponentList>


>  <AmbiguousFlag>
N

>  <InChI>
InChI=1S/C3H3BrN2/c4-3-1-5-2-6-3/h1-2H,(H,5,6)

>  <InChIKey>
FHZALEJIENDROK-UHFFFAOYSA-N

>  <SMILES>
c1c(nc[nH]1)Br

$$$$
3DN6_F3B_A_900
  RCSB PDB12061708203D
Coordinates from PDB:3DN6:A:900 Model:1 without hydrogens
 12 12  0  0  0  0            999 V2000
   27.9090    9.8170    3.3240  Cl 0  0  0  0  0  0  0  0  0  0  0  0
   27.3400    8.1430    3.5940   C 0  0  0  0  0  0  0  0  0  0  0  0
   26.6540    7.8350    4.7560   C 0  0  0  0  0  0  0  0  0  0  0  0
   26.4210    8.7900    5.6710   F 0  0  0  0  0  0  0  0  0  0  0  0
   27.5870    7.1630    2.6460   C 0  0  0  0  0  0  0  0  0  0  0  0
   28.2520    7.4720    1.5200   F 0  0  0  0  0  0  0  0  0  0  0  0
   27.1380    5.8690    2.8640   C 0  0  0  0  0  0  0  0  0  0  0  0
   27.4380    4.5780    1.6610  Cl 0  0  0  0  0  0  0  0  0  0  0  0
   26.4500    5.5590    4.0230   C 0  0  0  0  0  0  0  0  0  0  0  0
   26.0230    4.3020    4.2300   F 0  0  0  0  0  0  0  0  0  0  0  0
   26.2100    6.5400    4.9680   C 0  0  0  0  0  0  0  0  0  0  0  0
   25.3240    6.1280    6.4650  Cl 0  0  0  0  0  0  0  0  0  0  0  0
  1  2  1  0  0  0  0
  2  3  2  0  0  0  0
  2  5  1  0  0  0  0
  3  4  1  0  0  0  0
  3 11  1  0  0  0  0
  5  6  1  0  0  0  0
  5  7  2  0  0  0  0
  7  8  1  0  0  0  0
  7  9  1  0  0  0  0
  9 10  1  0  0  0  0
  9 11  2  0  0  0  0
 11 12  1  0  0  0  0
M  END
>  <InstanceId>
3DN6_F3B_A_900

>  <ChemCompId>
F3B

>  <PdbId>
3DN6

>  <ChainId>
A

>  <ResidueNumber>
900

>  <InsertionCode>


>  <Model>
1

>  <AltIds>


>  <MissingHeavyAtoms>
0

>  <ObservedFormula>
C6 F3 Cl3

>  <Name>
1,3,5-trichloro-2,4,6-trifluorobenzene

>  <SystematicName>
1,3,5-trichloro-2,4,6-trifluoro-benzene

>  <Synonyms>


>  <Type>
NON-POLYMER

>  <Formula>
C6 Cl3 F3

>  <MolecularWeight>
235.418

>  <ModifiedDate>
2011-06-04

>  <Parent>


>  <OneLetterCode>


>  <SubcomponentList>


>  <AmbiguousFlag>
N

>  <InChI>
InChI=1S/C6Cl3F3/c7-1-4(10)2(8)6(12)3(9)5(1)11

>  <InChIKey>
QPXZZPSKCVNHFW-UHFFFAOYSA-N

>  <SMILES>
c1(c(c(c(c(c1Cl)F)Cl)F)Cl)F

$$$$
3DN0_F5B_A_900
  RCSB PDB12061708203D
Coordinates from PDB:3DN0:A:900 Model:1 without hydrogens
 11 11  0  0  0  0            999 V2000
   28.2660    7.7580    2.2340   F 0  0  0  0  0  0  0  0  0  0  0  0
   27.4700    7.2760    3.1990   C 0  0  0  0  0  0  0  0  0  0  0  0
   26.9080    6.0120    3.0800   C 0  0  0  0  0  0  0  0  0  0  0  0
   27.1560    5.2510    1.9990   F 0  0  0  0  0  0  0  0  0  0  0  0
   27.2030    8.0560    4.3210   C 0  0  0  0  0  0  0  0  0  0  0  0
   26.3750    7.5620    5.3240   C 0  0  0  0  0  0  0  0  0  0  0  0
   26.1170    8.3170    6.4060   F 0  0  0  0  0  0  0  0  0  0  0  0
   25.8150    6.2950    5.2020   C 0  0  0  0  0  0  0  0  0  0  0  0
   25.0150    5.8150    6.1720   F 0  0  0  0  0  0  0  0  0  0  0  0
   26.0800    5.5250    4.0790   C 0  0  0  0  0  0  0  0  0  0  0  0
   25.5460    4.2980    3.9550   F 0  0  0  0  0  0  0  0  0  0  0  0
  1  2  1  0  0  0  0
  2  3  2  0  0  0  0
  2  5  1  0  0  0  0
  3  4  1  0  0  0  0
  3 10  1  0  0  0  0
  5  6  2  0  0  0  0
  6  7  1  0  0  0  0
  6  8  1  0  0  0  0
  8  9  1  0  0  0  0
  8 10  2  0  0  0  0
 10 11  1  0  0  0  0
M  END
>  <InstanceId>
3DN0_F5B_A_900

>  <ChemCompId>
F5B

>  <PdbId>
3DN0

>  <ChainId>
A

>  <ResidueNumber>
900

>  <InsertionCode>


>  <Model>
1

>  <AltIds>


>  <MissingHeavyAtoms>
0

>  <ObservedFormula>
C6 F5

>  <Name>
1,2,3,4,5-pentafluorobenzene

>  <SystematicName>
1,2,3,4,5-pentafluorobenzene

>  <Synonyms>


>  <Type>
NON-POLYMER

>  <Formula>
C6 H F5

>  <MolecularWeight>
168.064

>  <ModifiedDate>
2011-06-04

>  <Parent>


>  <OneLetterCode>


>  <SubcomponentList>


>  <AmbiguousFlag>
N

>  <InChI>
InChI=1S/C6HF5/c7-2-1-3(8)5(10)6(11)4(2)9/h1H

>  <InChIKey>
WACNXHCZHTVBJM-UHFFFAOYSA-N

>  <SMILES>
c1c(c(c(c(c1F)F)F)F)F

$$$$
1OVJ_FLM_A_408
  RCSB PDB12061703363D
Coordinates from PDB:1OVJ:A:408 Model:1 without hydrogens
  9  9  0  0  0  0            999 V2000
   27.2530    7.1220    4.2610   C 0  0  0  0  0  0  0  0  0  0  0  0
   27.5050    6.6060    2.9990   C 0  0  0  0  0  0  0  0  0  0  0  0
   26.3980    6.4410    5.1370   C 0  0  0  0  0  0  0  0  0  0  0  0
   27.9700    8.4150    4.6040   C 0  0  0  0  0  0  0  0  0  0  0  0
   26.9050    5.4200    2.5770   C 0  0  0  0  0  0  0  0  0  0  0  0
   28.3820    7.3470    2.2260   N 0  0  0  0  0  0  0  0  0  0  0  0
   25.7730    5.2580    4.7460   C 0  0  0  0  0  0  0  0  0  0  0  0
   26.1280    6.8960    6.3390   F 0  0  0  0  0  0  0  0  0  0  0  0
   26.0580    4.7680    3.4730   C 0  0  0  0  0  0  0  0  0  0  0  0
  1  2  2  0  0  0  0
  1  3  1  0  0  0  0
  1  4  1  0  0  0  0
  2  5  1  0  0  0  0
  2  6  1  0  0  0  0
  3  7  2  0  0  0  0
  3  8  1  0  0  0  0
  5  9  2  0  0  0  0
  7  9  1  0  0  0  0
M  END
>  <InstanceId>
1OVJ_FLM_A_408

>  <ChemCompId>
FLM

>  <PdbId>
1OVJ

>  <ChainId>
A

>  <ResidueNumber>
408

>  <InsertionCode>


>  <Model>
1

>  <AltIds>


>  <MissingHeavyAtoms>
0

>  <ObservedFormula>
C7 N F

>  <Name>
3-FLUORO-2-METHYL-ANILINE

>  <SystematicName>
3-fluoro-2-methyl-aniline

>  <Synonyms>


>  <Type>
NON-POLYMER

>  <Formula>
C7 H8 F N

>  <MolecularWeight>
125.144

>  <ModifiedDate>
2011-06-04

>  <Parent>


>  <OneLetterCode>


>  <SubcomponentList>


>  <AmbiguousFlag>
N

>  <InChI>
InChI=1S/C7H8FN/c1-5-6(8)3-2-4-7(5)9/h2-4H,9H2,1H3

>  <InChIKey>
SLDLVGFPFFLYBM-UHFFFAOYSA-N

>  <SMILES>
Cc1c(cccc1F)N

$$$$
3DKE_GOL_X_501
  RCSB PDB12061708203D
Coordinates from PDB:3DKE:X:501 Model:1 without hydrogens
  6  5  0  0  0  0            999 V2000
   32.6660   13.7210   14.8450   C 0  0  0  0  0  0  0  0  0  0  0  0
   31.8230   14.1520   13.8040   O 0  0  0  0  0  0  0  0  0  0  0  0
   33.8310   14.6870   15.0580   C 0  0  0  0  0  0  0  0  0  0  0  0
   34.7840   14.0350   15.8570   O 0  0  0  0  0  0  0  0  0  0  0  0
   33.4690   16.0290   15.7390   C 0  0  0  0  0  0  0  0  0  0  0  0
   33.2510   15.8780   17.1610   O 0  0  0  0  0  0  0  0  0  0  0  0
  1  2  1  0  0  0  0
  1  3  1  0  0  0  0
  3  4  1  0  0  0  0
  3  5  1  0  0  0  0
  5  6  1  0  0  0  0
M  END
>  <InstanceId>
3DKE_GOL_X_501

>  <ChemCompId>
GOL

>  <PdbId>
3DKE

>  <ChainId>
X

>  <ResidueNumber>
501

>  <InsertionCode>


>  <Model>
1

>  <AltIds>


>  <MissingHeavyAtoms>
0

>  <ObservedFormula>
C3 O3

>  <Name>
GLYCEROL

>  <SystematicName>
propane-1,2,3-triol

>  <Synonyms>
GLYCERIN; PROPANE-1,2,3-TRIOL

>  <Type>
NON-POLYMER

>  <Formula>
C3 H8 O3

>  <MolecularWeight>
92.094

>  <ModifiedDate>
2011-06-04

>  <Parent>


>  <OneLetterCode>


>  <SubcomponentList>


>  <AmbiguousFlag>
N

>  <InChI>
InChI=1S/C3H8O3/c4-1-3(6)2-5/h3-6H,1-2H2

>  <InChIKey>
PEDCQBHIVMGVHV-UHFFFAOYSA-N

>  <SMILES>
C(C(CO)O)O

$$$$
181L_HED_A_170
  RCSB PDB12061701563D
Coordinates from PDB:181L:A:170 Model:1 without hydrogens
  8  7  0  0  0  0            999 V2000
   31.8280   -0.8340   15.1090   C 0  0  0  0  0  0  0  0  0  0  0  0
   33.1830   -0.8950   15.5280   O 0  0  0  0  0  0  0  0  0  0  0  0
   31.8850   -0.5720   13.6250   C 0  0  0  0  0  0  0  0  0  0  0  0
   33.3380   -1.4670   13.0440   S 0  0  0  0  0  0  0  0  0  0  0  0
   33.4940   -0.8600   11.0880   S 0  0  0  0  0  0  0  0  0  0  0  0
   32.8620   -2.2720   10.1080   C 0  0  0  0  0  0  0  0  0  0  0  0
   33.9740   -3.2750    9.7670   C 0  0  0  0  0  0  0  0  0  0  0  0
   35.0240   -2.6200    9.0870   O 0  0  0  0  0  0  0  0  0  0  0  0
  1  2  1  0  0  0  0
  1  3  1  0  0  0  0
  3  4  1  0  0  0  0
  4  5  1  0  0  0  0
  5  6  1  0  0  0  0
  6  7  1  0  0  0  0
  7  8  1  0  0  0  0
M  END
>  <InstanceId>
181L_HED_A_170

>  <ChemCompId>
HED

>  <PdbId>
181L

>  <ChainId>
A

>  <ResidueNumber>
170

>  <InsertionCode>


>  <Model>
1

>  <AltIds>


>  <MissingHeavyAtoms>
0

>  <ObservedFormula>
C4 O2 S2

>  <Name>
2-HYDROXYETHYL DISULFIDE

>  <SystematicName>
2-(2-hydroxyethyldisulfanyl)ethanol

>  <Synonyms>


>  <Type>
NON-POLYMER

>  <Formula>
C4 H10 O2 S2

>  <MolecularWeight>
154.251

>  <ModifiedDate>
2011-06-04

>  <Parent>


>  <OneLetterCode>


>  <SubcomponentList>


>  <AmbiguousFlag>
N

>  <InChI>
InChI=1S/C4H10O2S2/c5-1-3-7-8-4-2-6/h5-6H,1-4H2

>  <InChIKey>
KYNFOMQIXZUKRK-UHFFFAOYSA-N

>  <SMILES>
C(CSSCCO)O

$$$$
182L_HED_A_170
  RCSB PDB12061701563D
Coordinates from PDB:182L:A:170 Model:1 without hydrogens
  8  7  0  0  0  0            999 V2000
   31.7980   -1.0430   15.2400   C 0  0  0  0  0  0  0  0  0  0  0  0
   33.1290   -0.7140   15.6800   O 0  0  0  0  0  0  0  0  0  0  0  0
   31.7980   -0.8490   13.7530   C 0  0  0  0  0  0  0  0  0  0  0  0
   33.3080   -1.5680   13.0980   S 0  0  0  0  0  0  0  0  0  0  0  0
   33.3250   -0.8080   11.1850   S 0  0  0  0  0  0  0  0  0  0  0  0
   32.7340   -2.1190   10.0770   C 0  0  0  0  0  0  0  0  0  0  0  0
   33.8430   -3.1360    9.7400   C 0  0  0  0  0  0  0  0  0  0  0  0
   34.9270   -2.4490    9.1350   O 0  0  0  0  0  0  0  0  0  0  0  0
  1  2  1  0  0  0  0
  1  3  1  0  0  0  0
  3  4  1  0  0  0  0
  4  5  1  0  0  0  0
  5  6  1  0  0  0  0
  6  7  1  0  0  0  0
  7  8  1  0  0  0  0
M  END
>  <InstanceId>
182L_HED_A_170

>  <ChemCompId>
HED

>  <PdbId>
182L

>  <ChainId>
A

>  <ResidueNumber>
170

>  <InsertionCode>


>  <Model>
1

>  <AltIds>


>  <MissingHeavyAtoms>
0

>  <ObservedFormula>
C4 O2 S2

>  <Name>
2-HYDROXYETHYL DISULFIDE

>  <SystematicName>
2-(2-hydroxyethyldisulfanyl)ethanol

>  <Synonyms>


>  <Type>
NON-POLYMER

>  <Formula>
C4 H10 O2 S2

>  <MolecularWeight>
154.251

>  <ModifiedDate>
2011-06-04

>  <Parent>


>  <OneLetterCode>


>  <SubcomponentList>


>  <AmbiguousFlag>
N

>  <InChI>
InChI=1S/C4H10O2S2/c5-1-3-7-8-4-2-6/h5-6H,1-4H2

>  <InChIKey>
KYNFOMQIXZUKRK-UHFFFAOYSA-N

>  <SMILES>
C(CSSCCO)O

$$$$
183L_HED_A_170
  RCSB PDB12061701563D
Coordinates from PDB:183L:A:170 Model:1 without hydrogens
  8  7  0  0  0  0            999 V2000
   31.8820   -1.2090   15.2050   C 0  0  0  0  0  0  0  0  0  0  0  0
   33.0890   -0.8110   15.8450   O 0  0  0  0  0  0  0  0  0  0  0  0
   31.9570   -0.5800   13.8550   C 0  0  0  0  0  0  0  0  0  0  0  0
   33.1340   -1.5310   12.8960   S 0  0  0  0  0  0  0  0  0  0  0  0
   32.5050   -1.2450   10.9560   S 0  0  0  0  0  0  0  0  0  0  0  0
   32.3920   -2.9130   10.2460   C 0  0  0  0  0  0  0  0  0  0  0  0
   33.6920   -3.3790    9.5490   C 0  0  0  0  0  0  0  0  0  0  0  0
   34.3110   -2.3000    8.8610   O 0  0  0  0  0  0  0  0  0  0  0  0
  1  2  1  0  0  0  0
  1  3  1  0  0  0  0
  3  4  1  0  0  0  0
  4  5  1  0  0  0  0
  5  6  1  0  0  0  0
  6  7  1  0  0  0  0
  7  8  1  0  0  0  0
M  END
>  <InstanceId>
183L_HED_A_170

>  <ChemCompId>
HED

>  <PdbId>
183L

>  <ChainId>
A

>  <ResidueNumber>
170

>  <InsertionCode>


>  <Model>
1

>  <AltIds>


>  <MissingHeavyAtoms>
0

>  <ObservedFormula>
C4 O2 S2

>  <Name>
2-HYDROXYETHYL DISULFIDE

>  <SystematicName>
2-(2-hydroxyethyldisulfanyl)ethanol

>  <Synonyms>


>  <Type>
NON-POLYMER

>  <Formula>
C4 H10 O2 S2

>  <MolecularWeight>
154.251

>  <ModifiedDate>
2011-06-04

>  <Parent>


>  <OneLetterCode>


>  <SubcomponentList>


>  <AmbiguousFlag>
N

>  <InChI>
InChI=1S/C4H10O2S2/c5-1-3-7-8-4-2-6/h5-6H,1-4H2

>  <InChIKey>
KYNFOMQIXZUKRK-UHFFFAOYSA-N

>  <SMILES>
C(CSSCCO)O

$$$$
184L_HED_A_170
  RCSB PDB12061701563D
Coordinates from PDB:184L:A:170 Model:1 without hydrogens
  8  7  0  0  0  0            999 V2000
   32.1230   -1.2780   15.0270   C 0  0  0  0  0  0  0  0  0  0  0  0
   33.1760   -0.6920   15.7460   O 0  0  0  0  0  0  0  0  0  0  0  0
   32.0490   -0.5670   13.6880   C 0  0  0  0  0  0  0  0  0  0  0  0
   32.8760   -1.5910   12.4520   S 0  0  0  0  0  0  0  0  0  0  0  0
   31.7950   -1.4580   10.5880   S 0  0  0  0  0  0  0  0  0  0  0  0
   32.2040   -2.9870    9.6790   C 0  0  0  0  0  0  0  0  0  0  0  0
   33.7170   -3.2260    9.4720   C 0  0  0  0  0  0  0  0  0  0  0  0
   34.2770   -2.0750    8.8970   O 0  0  0  0  0  0  0  0  0  0  0  0
  1  2  1  0  0  0  0
  1  3  1  0  0  0  0
  3  4  1  0  0  0  0
  4  5  1  0  0  0  0
  5  6  1  0  0  0  0
  6  7  1  0  0  0  0
  7  8  1  0  0  0  0
M  END
>  <InstanceId>
184L_HED_A_170

>  <ChemCompId>
HED

>  <PdbId>
184L

>  <ChainId>
A

>  <ResidueNumber>
170

>  <InsertionCode>


>  <Model>
1

>  <AltIds>


>  <MissingHeavyAtoms>
0

>  <ObservedFormula>
C4 O2 S2

>  <Name>
2-HYDROXYETHYL DISULFIDE

>  <SystematicName>
2-(2-hydroxyethyldisulfanyl)ethanol

>  <Synonyms>


>  <Type>
NON-POLYMER

>  <Formula>
C4 H10 O2 S2

>  <MolecularWeight>
154.251

>  <ModifiedDate>
2011-06-04

>  <Parent>


>  <OneLetterCode>


>  <SubcomponentList>


>  <AmbiguousFlag>
N

>  <InChI>
InChI=1S/C4H10O2S2/c5-1-3-7-8-4-2-6/h5-6H,1-4H2

>  <InChIKey>
KYNFOMQIXZUKRK-UHFFFAOYSA-N

>  <SMILES>
C(CSSCCO)O

$$$$
185L_HED_A_170
  RCSB PDB12061701563D
Coordinates from PDB:185L:A:170 Model:1 without hydrogens
  8  7  0  0  0  0            999 V2000
   32.1610   -1.2950   15.2940   C 0  0  0  0  0  0  0  0  0  0  0  0
   33.4370   -1.0410   15.8890   O 0  0  0  0  0  0  0  0  0  0  0  0
   32.2270   -0.6920   13.9030   C 0  0  0  0  0  0  0  0  0  0  0  0
   33.5890   -1.4520   13.0060   S 0  0  0  0  0  0  0  0  0  0  0  0
   33.5800   -0.5600   11.1630   S 0  0  0  0  0  0  0  0  0  0  0  0
   32.8730   -1.8220   10.0690   C 0  0  0  0  0  0  0  0  0  0  0  0
   33.8860   -2.9340    9.7120   C 0  0  0  0  0  0  0  0  0  0  0  0
   34.9770   -2.3820    8.9960   O 0  0  0  0  0  0  0  0  0  0  0  0
  1  2  1  0  0  0  0
  1  3  1  0  0  0  0
  3  4  1  0  0  0  0
  4  5  1  0  0  0  0
  5  6  1  0  0  0  0
  6  7  1  0  0  0  0
  7  8  1  0  0  0  0
M  END
>  <InstanceId>
185L_HED_A_170

>  <ChemCompId>
HED

>  <PdbId>
185L

>  <ChainId>
A

>  <ResidueNumber>
170

>  <InsertionCode>


>  <Model>
1

>  <AltIds>


>  <MissingHeavyAtoms>
0

>  <ObservedFormula>
C4 O2 S2

>  <Name>
2-HYDROXYETHYL DISULFIDE

>  <SystematicName>
2-(2-hydroxyethyldisulfanyl)ethanol

>  <Synonyms>


>  <Type>
NON-POLYMER

>  <Formula>
C4 H10 O2 S2

>  <MolecularWeight>
154.251

>  <ModifiedDate>
2011-06-04

>  <Parent>


>  <OneLetterCode>


>  <SubcomponentList>


>  <AmbiguousFlag>
N

>  <InChI>
InChI=1S/C4H10O2S2/c5-1-3-7-8-4-2-6/h5-6H,1-4H2

>  <InChIKey>
KYNFOMQIXZUKRK-UHFFFAOYSA-N

>  <SMILES>
C(CSSCCO)O

$$$$
186L_HED_A_170
  RCSB PDB12061701563D
Coordinates from PDB:186L:A:170 Model:1 without hydrogens
  8  7  0  0  0  0            999 V2000
   31.6810   -1.3340   15.2930   C 0  0  0  0  0  0  0  0  0  0  0  0
   32.9050   -0.8690   15.8950   O 0  0  0  0  0  0  0  0  0  0  0  0
   31.7390   -0.8760   13.8660   C 0  0  0  0  0  0  0  0  0  0  0  0
   33.3710   -1.2680   13.2060   S 0  0  0  0  0  0  0  0  0  0  0  0
   33.1100   -1.1080   11.1350   S 0  0  0  0  0  0  0  0  0  0  0  0
   32.4330   -2.6850   10.5520   C 0  0  0  0  0  0  0  0  0  0  0  0
   33.4290   -3.5280    9.7500   C 0  0  0  0  0  0  0  0  0  0  0  0
   34.5240   -2.7120    9.3680   O 0  0  0  0  0  0  0  0  0  0  0  0
  1  2  1  0  0  0  0
  1  3  1  0  0  0  0
  3  4  1  0  0  0  0
  4  5  1  0  0  0  0
  5  6  1  0  0  0  0
  6  7  1  0  0  0  0
  7  8  1  0  0  0  0
M  END
>  <InstanceId>
186L_HED_A_170

>  <ChemCompId>
HED

>  <PdbId>
186L

>  <ChainId>
A

>  <ResidueNumber>
170

>  <InsertionCode>


>  <Model>
1

>  <AltIds>


>  <MissingHeavyAtoms>
0

>  <ObservedFormula>
C4 O2 S2

>  <Name>
2-HYDROXYETHYL DISULFIDE

>  <SystematicName>
2-(2-hydroxyethyldisulfanyl)ethanol

>  <Synonyms>


>  <Type>
NON-POLYMER

>  <Formula>
C4 H10 O2 S2

>  <MolecularWeight>
154.251

>  <ModifiedDate>
2011-06-04

>  <Parent>


>  <OneLetterCode>


>  <SubcomponentList>


>  <AmbiguousFlag>
N

>  <InChI>
InChI=1S/C4H10O2S2/c5-1-3-7-8-4-2-6/h5-6H,1-4H2

>  <InChIKey>
KYNFOMQIXZUKRK-UHFFFAOYSA-N

>  <SMILES>
C(CSSCCO)O

$$$$
187L_HED_A_170
  RCSB PDB12061701563D
Coordinates from PDB:187L:A:170 Model:1 without hydrogens
  8  7  0  0  0  0            999 V2000
   31.8680   -1.2200   15.2130   C 0  0  0  0  0  0  0  0  0  0  0  0
   33.1130   -0.7380   15.7400   O 0  0  0  0  0  0  0  0  0  0  0  0
   31.8690   -0.7940   13.7870   C 0  0  0  0  0  0  0  0  0  0  0  0
   33.3690   -1.4350   13.0460   S 0  0  0  0  0  0  0  0  0  0  0  0
   33.1790   -0.8220   11.0500   S 0  0  0  0  0  0  0  0  0  0  0  0
   32.6340   -2.2780   10.0980   C 0  0  0  0  0  0  0  0  0  0  0  0
   33.7700   -3.3000    9.8510   C 0  0  0  0  0  0  0  0  0  0  0  0
   34.8050   -2.6980    9.0860   O 0  0  0  0  0  0  0  0  0  0  0  0
  1  2  1  0  0  0  0
  1  3  1  0  0  0  0
  3  4  1  0  0  0  0
  4  5  1  0  0  0  0
  5  6  1  0  0  0  0
  6  7  1  0  0  0  0
  7  8  1  0  0  0  0
M  END
>  <InstanceId>
187L_HED_A_170

>  <ChemCompId>
HED

>  <PdbId>
187L

>  <ChainId>
A

>  <ResidueNumber>
170

>  <InsertionCode>


>  <Model>
1

>  <AltIds>


>  <MissingHeavyAtoms>
0

>  <ObservedFormula>
C4 O2 S2

>  <Name>
2-HYDROXYETHYL DISULFIDE

>  <SystematicName>
2-(2-hydroxyethyldisulfanyl)ethanol

>  <Synonyms>


>  <Type>
NON-POLYMER

>  <Formula>
C4 H10 O2 S2

>  <MolecularWeight>
154.251

>  <ModifiedDate>
2011-06-04

>  <Parent>


>  <OneLetterCode>


>  <SubcomponentList>


>  <AmbiguousFlag>
N

>  <InChI>
InChI=1S/C4H10O2S2/c5-1-3-7-8-4-2-6/h5-6H,1-4H2

>  <InChIKey>
KYNFOMQIXZUKRK-UHFFFAOYSA-N

>  <SMILES>
C(CSSCCO)O

$$$$
188L_HED_A_170
  RCSB PDB12061701563D
Coordinates from PDB:188L:A:170 Model:1 without hydrogens
  8  7  0  0  0  0            999 V2000
   31.7560   -1.2100   15.4040   C 0  0  0  0  0  0  0  0  0  0  0  0
   33.0880   -0.9020   15.8820   O 0  0  0  0  0  0  0  0  0  0  0  0
   31.7150   -0.7740   13.9490   C 0  0  0  0  0  0  0  0  0  0  0  0
   33.2150   -1.3720   13.1640   S 0  0  0  0  0  0  0  0  0  0  0  0
   33.0490   -0.7260   11.1740   S 0  0  0  0  0  0  0  0  0  0  0  0
   32.5610   -2.1450   10.1340   C 0  0  0  0  0  0  0  0  0  0  0  0
   33.6830   -3.1680    9.8290   C 0  0  0  0  0  0  0  0  0  0  0  0
   34.5460   -2.6270    8.8490   O 0  0  0  0  0  0  0  0  0  0  0  0
  1  2  1  0  0  0  0
  1  3  1  0  0  0  0
  3  4  1  0  0  0  0
  4  5  1  0  0  0  0
  5  6  1  0  0  0  0
  6  7  1  0  0  0  0
  7  8  1  0  0  0  0
M  END
>  <InstanceId>
188L_HED_A_170

>  <ChemCompId>
HED

>  <PdbId>
188L

>  <ChainId>
A

>  <ResidueNumber>
170

>  <InsertionCode>


>  <Model>
1

>  <AltIds>


>  <MissingHeavyAtoms>
0

>  <ObservedFormula>
C4 O2 S2

>  <Name>
2-HYDROXYETHYL DISULFIDE

>  <SystematicName>
2-(2-hydroxyethyldisulfanyl)ethanol

>  <Synonyms>


>  <Type>
NON-POLYMER

>  <Formula>
C4 H10 O2 S2

>  <MolecularWeight>
154.251

>  <ModifiedDate>
2011-06-04

>  <Parent>


>  <OneLetterCode>


>  <SubcomponentList>


>  <AmbiguousFlag>
N

>  <InChI>
InChI=1S/C4H10O2S2/c5-1-3-7-8-4-2-6/h5-6H,1-4H2

>  <InChIKey>
KYNFOMQIXZUKRK-UHFFFAOYSA-N

>  <SMILES>
C(CSSCCO)O

$$$$
1NHB_HED_A_170
  RCSB PDB12061703243D
Coordinates from PDB:1NHB:A:170 Model:1 without hydrogens
  8  7  0  0  0  0            999 V2000
   31.9050   -1.2930   15.1930   C 0  0  0  0  0  0  0  0  0  0  0  0
   33.1070   -0.8140   15.7750   O 0  0  0  0  0  0  0  0  0  0  0  0
   31.8610   -0.7400   13.8040   C 0  0  0  0  0  0  0  0  0  0  0  0
   33.3020   -1.3720   12.9700   S 0  0  0  0  0  0  0  0  0  0  0  0
   32.8360   -1.0430   10.9590   S 0  0  0  0  0  0  0  0  0  0  0  0
   32.5580   -2.6330   10.1290   C 0  0  0  0  0  0  0  0  0  0  0  0
   33.8740   -3.3080    9.6790   C 0  0  0  0  0  0  0  0  0  0  0  0
   34.6210   -2.4170    8.8760   O 0  0  0  0  0  0  0  0  0  0  0  0
  1  2  1  0  0  0  0
  1  3  1  0  0  0  0
  3  4  1  0  0  0  0
  4  5  1  0  0  0  0
  5  6  1  0  0  0  0
  6  7  1  0  0  0  0
  7  8  1  0  0  0  0
M  END
>  <InstanceId>
1NHB_HED_A_170

>  <ChemCompId>
HED

>  <PdbId>
1NHB

>  <ChainId>
A

>  <ResidueNumber>
170

>  <InsertionCode>


>  <Model>
1

>  <AltIds>


>  <MissingHeavyAtoms>
0

>  <ObservedFormula>
C4 O2 S2

>  <Name>
2-HYDROXYETHYL DISULFIDE

>  <SystematicName>
2-(2-hydroxyethyldisulfanyl)ethanol

>  <Synonyms>


>  <Type>
NON-POLYMER

>  <Formula>
C4 H10 O2 S2

>  <MolecularWeight>
154.251

>  <ModifiedDate>
2011-06-04

>  <Parent>


>  <OneLetterCode>


>  <SubcomponentList>


>  <AmbiguousFlag>
N

>  <InChI>
InChI=1S/C4H10O2S2/c5-1-3-7-8-4-2-6/h5-6H,1-4H2

>  <InChIKey>
KYNFOMQIXZUKRK-UHFFFAOYSA-N

>  <SMILES>
C(CSSCCO)O

$$$$
1QUO_HED_A_170
  RCSB PDB12061703493D
Coordinates from PDB:1QUO:A:170 Model:1 without hydrogens
  8  7  0  0  0  0            999 V2000
   33.0270    1.4610   18.8250   C 0  0  0  0  0  0  0  0  0  0  0  0
   33.0570    1.2510   20.2280   O 0  0  0  0  0  0  0  0  0  0  0  0
   32.2610    0.3290   18.0930   C 0  0  0  0  0  0  0  0  0  0  0  0
   33.1760   -0.3900   16.6750   S 0  0  0  0  0  0  0  0  0  0  0  0
   31.7790   -1.0060   15.2190   S 0  0  0  0  0  0  0  0  0  0  0  0
   32.7730   -1.7750   13.9200   C 0  0  0  0  0  0  0  0  0  0  0  0
   33.6430   -0.8050   13.0820   C 0  0  0  0  0  0  0  0  0  0  0  0
   33.2620   -0.8190   11.7120   O 0  0  0  0  0  0  0  0  0  0  0  0
  1  2  1  0  0  0  0
  1  3  1  0  0  0  0
  3  4  1  0  0  0  0
  4  5  1  0  0  0  0
  5  6  1  0  0  0  0
  6  7  1  0  0  0  0
  7  8  1  0  0  0  0
M  END
>  <InstanceId>
1QUO_HED_A_170

>  <ChemCompId>
HED

>  <PdbId>
1QUO

>  <ChainId>
A

>  <ResidueNumber>
170

>  <InsertionCode>


>  <Model>
1

>  <AltIds>


>  <MissingHeavyAtoms>
0

>  <ObservedFormula>
C4 O2 S2

>  <Name>
2-HYDROXYETHYL DISULFIDE

>  <SystematicName>
2-(2-hydroxyethyldisulfanyl)ethanol

>  <Synonyms>


>  <Type>
NON-POLYMER

>  <Formula>
C4 H10 O2 S2

>  <MolecularWeight>
154.251

>  <ModifiedDate>
2011-06-04

>  <Parent>


>  <OneLetterCode>


>  <SubcomponentList>


>  <AmbiguousFlag>
N

>  <InChI>
InChI=1S/C4H10O2S2/c5-1-3-7-8-4-2-6/h5-6H,1-4H2

>  <InChIKey>
KYNFOMQIXZUKRK-UHFFFAOYSA-N

>  <SMILES>
C(CSSCCO)O

$$$$
3DKE_HED_X_801
  RCSB PDB12061708203D
Coordinates from PDB:3DKE:X:801 Model:1 without hydrogens
  8  7  0  0  0  0            999 V2000
   19.7920    7.7590   -0.0060   C 0  0  0  0  0  0  0  0  0  0  0  0
   18.7910    7.4880   -0.9640   O 0  0  0  0  0  0  0  0  0  0  0  0
   19.1640    7.9010    1.3770   C 0  0  0  0  0  0  0  0  0  0  0  0
   20.3970    8.2260    2.6630   S 0  0  0  0  0  0  0  0  0  0  0  0
   20.8310   10.1980    2.4230   S 0  0  0  0  0  0  0  0  0  0  0  0
   19.6330   11.0650    3.4680   C 0  0  0  0  0  0  0  0  0  0  0  0
   20.1320   11.2340    4.8990   C 0  0  0  0  0  0  0  0  0  0  0  0
   19.0860   11.7140    5.7160   O 0  0  0  0  0  0  0  0  0  0  0  0
  1  2  1  0  0  0  0
  1  3  1  0  0  0  0
  3  4  1  0  0  0  0
  4  5  1  0  0  0  0
  5  6  1  0  0  0  0
  6  7  1  0  0  0  0
  7  8  1  0  0  0  0
M  END
>  <InstanceId>
3DKE_HED_X_801

>  <ChemCompId>
HED

>  <PdbId>
3DKE

>  <ChainId>
X

>  <ResidueNumber>
801

>  <InsertionCode>


>  <Model>
1

>  <AltIds>


>  <MissingHeavyAtoms>
0

>  <ObservedFormula>
C4 O2 S2

>  <Name>
2-HYDROXYETHYL DISULFIDE

>  <SystematicName>
2-(2-hydroxyethyldisulfanyl)ethanol

>  <Synonyms>


>  <Type>
NON-POLYMER

>  <Formula>
C4 H10 O2 S2

>  <MolecularWeight>
154.251

>  <ModifiedDate>
2011-06-04

>  <Parent>


>  <OneLetterCode>


>  <SubcomponentList>


>  <AmbiguousFlag>
N

>  <InChI>
InChI=1S/C4H10O2S2/c5-1-3-7-8-4-2-6/h5-6H,1-4H2

>  <InChIKey>
KYNFOMQIXZUKRK-UHFFFAOYSA-N

>  <SMILES>
C(CSSCCO)O

$$$$
3DMV_HED_A_903
  RCSB PDB12061708203D
Coordinates from PDB:3DMV:A:903 Model:1 without hydrogens
  8  7  0  0  0  0            999 V2000
   31.6220    1.5980   16.8490   C 0  0  0  0  0  0  0  0  0  0  0  0
   32.6970    1.4470   15.9470   O 0  0  0  0  0  0  0  0  0  0  0  0
   31.9000    0.7400   18.0730   C 0  0  0  0  0  0  0  0  0  0  0  0
   33.4110    1.2600   18.9230   S 0  0  0  0  0  0  0  0  0  0  0  0
   33.5760   -0.0840   20.4440   S 0  0  0  0  0  0  0  0  0  0  0  0
   33.5830    0.8690   21.9830   C 0  0  0  0  0  0  0  0  0  0  0  0
   32.4060    1.8220   22.0710   C 0  0  0  0  0  0  0  0  0  0  0  0
   31.2960    1.2620   21.4020   O 0  0  0  0  0  0  0  0  0  0  0  0
  1  2  1  0  0  0  0
  1  3  1  0  0  0  0
  3  4  1  0  0  0  0
  4  5  1  0  0  0  0
  5  6  1  0  0  0  0
  6  7  1  0  0  0  0
  7  8  1  0  0  0  0
M  END
>  <InstanceId>
3DMV_HED_A_903

>  <ChemCompId>
HED

>  <PdbId>
3DMV

>  <ChainId>
A

>  <ResidueNumber>
903

>  <InsertionCode>


>  <Model>
1

>  <AltIds>


>  <MissingHeavyAtoms>
0

>  <ObservedFormula>
C4 O2 S2

>  <Name>
2-HYDROXYETHYL DISULFIDE

>  <SystematicName>
2-(2-hydroxyethyldisulfanyl)ethanol

>  <Synonyms>


>  <Type>
NON-POLYMER

>  <Formula>
C4 H10 O2 S2

>  <MolecularWeight>
154.251

>  <ModifiedDate>
2011-06-04

>  <Parent>


>  <OneLetterCode>


>  <SubcomponentList>


>  <AmbiguousFlag>
N

>  <InChI>
InChI=1S/C4H10O2S2/c5-1-3-7-8-4-2-6/h5-6H,1-4H2

>  <InChIKey>
KYNFOMQIXZUKRK-UHFFFAOYSA-N

>  <SMILES>
C(CSSCCO)O

$$$$
3DMX_HED_A_904
  RCSB PDB12061708203D
Coordinates from PDB:3DMX:A:904 Model:1 without hydrogens
  8  7  0  0  0  0            999 V2000
   32.6770   -1.0300    9.9910   C 0  0  0  0  0  0  0  0  0  0  0  0
   33.6800   -1.8450    9.4350   O 0  0  0  0  0  0  0  0  0  0  0  0
   33.2950   -0.1740   11.0840   C 0  0  0  0  0  0  0  0  0  0  0  0
   33.2060   -0.9440   12.7180   S 0  0  0  0  0  0  0  0  0  0  0  0
   31.5820   -0.0530   13.5650   S 0  0  0  0  0  0  0  0  0  0  0  0
   30.8330   -1.3340   14.5990   C 0  0  0  0  0  0  0  0  0  0  0  0
   31.8790   -2.1750   15.3190   C 0  0  0  0  0  0  0  0  0  0  0  0
   32.8400   -1.3420   15.9290   O 0  0  0  0  0  0  0  0  0  0  0  0
  1  2  1  0  0  0  0
  1  3  1  0  0  0  0
  3  4  1  0  0  0  0
  4  5  1  0  0  0  0
  5  6  1  0  0  0  0
  6  7  1  0  0  0  0
  7  8  1  0  0  0  0
M  END
>  <InstanceId>
3DMX_HED_A_904

>  <ChemCompId>
HED

>  <PdbId>
3DMX

>  <ChainId>
A

>  <ResidueNumber>
904

>  <InsertionCode>


>  <Model>
1

>  <AltIds>


>  <MissingHeavyAtoms>
0

>  <ObservedFormula>
C4 O2 S2

>  <Name>
2-HYDROXYETHYL DISULFIDE

>  <SystematicName>
2-(2-hydroxyethyldisulfanyl)ethanol

>  <Synonyms>


>  <Type>
NON-POLYMER

>  <Formula>
C4 H10 O2 S2

>  <MolecularWeight>
154.251

>  <ModifiedDate>
2011-06-04

>  <Parent>


>  <OneLetterCode>


>  <SubcomponentList>


>  <AmbiguousFlag>
N

>  <InChI>
InChI=1S/C4H10O2S2/c5-1-3-7-8-4-2-6/h5-6H,1-4H2

>  <InChIKey>
KYNFOMQIXZUKRK-UHFFFAOYSA-N

>  <SMILES>
C(CSSCCO)O

$$$$
3DMZ_HED_A_904
  RCSB PDB12061708203D
Coordinates from PDB:3DMZ:A:904 Model:1 without hydrogens
  8  7  0  0  0  0            999 V2000
   32.6050   -1.4230    9.8800   C 0  0  0  0  0  0  0  0  0  0  0  0
   31.2190   -1.6140   10.0490   O 0  0  0  0  0  0  0  0  0  0  0  0
   33.0950   -0.4370   10.9290   C 0  0  0  0  0  0  0  0  0  0  0  0
   33.3040   -1.2120   12.5520   S 0  0  0  0  0  0  0  0  0  0  0  0
   31.9450   -0.2330   13.7000   S 0  0  0  0  0  0  0  0  0  0  0  0
   31.4440   -1.5010   14.8890   C 0  0  0  0  0  0  0  0  0  0  0  0
   30.0440   -2.0320   14.6190   C 0  0  0  0  0  0  0  0  0  0  0  0
   29.0740   -1.0200   14.7570   O 0  0  0  0  0  0  0  0  0  0  0  0
  1  2  1  0  0  0  0
  1  3  1  0  0  0  0
  3  4  1  0  0  0  0
  4  5  1  0  0  0  0
  5  6  1  0  0  0  0
  6  7  1  0  0  0  0
  7  8  1  0  0  0  0
M  END
>  <InstanceId>
3DMZ_HED_A_904

>  <ChemCompId>
HED

>  <PdbId>
3DMZ

>  <ChainId>
A

>  <ResidueNumber>
904

>  <InsertionCode>


>  <Model>
1

>  <AltIds>


>  <MissingHeavyAtoms>
0

>  <ObservedFormula>
C4 O2 S2

>  <Name>
2-HYDROXYETHYL DISULFIDE

>  <SystematicName>
2-(2-hydroxyethyldisulfanyl)ethanol

>  <Synonyms>


>  <Type>
NON-POLYMER

>  <Formula>
C4 H10 O2 S2

>  <MolecularWeight>
154.251

>  <ModifiedDate>
2011-06-04

>  <Parent>


>  <OneLetterCode>


>  <SubcomponentList>


>  <AmbiguousFlag>
N

>  <InChI>
InChI=1S/C4H10O2S2/c5-1-3-7-8-4-2-6/h5-6H,1-4H2

>  <InChIKey>
KYNFOMQIXZUKRK-UHFFFAOYSA-N

>  <SMILES>
C(CSSCCO)O

$$$$
3DN0_HED_A_904
  RCSB PDB12061708203D
Coordinates from PDB:3DN0:A:904 Model:1 without hydrogens
  8  7  0  0  0  0            999 V2000
   33.3790   -1.1220    9.8100   C 0  0  0  0  0  0  0  0  0  0  0  0
   32.1470   -1.7560    9.5720   O 0  0  0  0  0  0  0  0  0  0  0  0
   33.2260   -0.0880   10.9160   C 0  0  0  0  0  0  0  0  0  0  0  0
   33.3190   -0.8070   12.5750   S 0  0  0  0  0  0  0  0  0  0  0  0
   31.6380   -0.0830   13.4700   S 0  0  0  0  0  0  0  0  0  0  0  0
   31.0230   -1.4190   14.5240   C 0  0  0  0  0  0  0  0  0  0  0  0
   32.1490   -2.1970   15.1860   C 0  0  0  0  0  0  0  0  0  0  0  0
   33.0580   -1.3220   15.8180   O 0  0  0  0  0  0  0  0  0  0  0  0
  1  2  1  0  0  0  0
  1  3  1  0  0  0  0
  3  4  1  0  0  0  0
  4  5  1  0  0  0  0
  5  6  1  0  0  0  0
  6  7  1  0  0  0  0
  7  8  1  0  0  0  0
M  END
>  <InstanceId>
3DN0_HED_A_904

>  <ChemCompId>
HED

>  <PdbId>
3DN0

>  <ChainId>
A

>  <ResidueNumber>
904

>  <InsertionCode>


>  <Model>
1

>  <AltIds>


>  <MissingHeavyAtoms>
0

>  <ObservedFormula>
C4 O2 S2

>  <Name>
2-HYDROXYETHYL DISULFIDE

>  <SystematicName>
2-(2-hydroxyethyldisulfanyl)ethanol

>  <Synonyms>


>  <Type>
NON-POLYMER

>  <Formula>
C4 H10 O2 S2

>  <MolecularWeight>
154.251

>  <ModifiedDate>
2011-06-04

>  <Parent>


>  <OneLetterCode>


>  <SubcomponentList>


>  <AmbiguousFlag>
N

>  <InChI>
InChI=1S/C4H10O2S2/c5-1-3-7-8-4-2-6/h5-6H,1-4H2

>  <InChIKey>
KYNFOMQIXZUKRK-UHFFFAOYSA-N

>  <SMILES>
C(CSSCCO)O

$$$$
3DN1_HED_A_904
  RCSB PDB12061708203D
Coordinates from PDB:3DN1:A:904 Model:1 without hydrogens
  8  7  0  0  0  0            999 V2000
   33.0110   -1.1060    9.8160   C 0  0  0  0  0  0  0  0  0  0  0  0
   31.6390   -1.4100    9.8840   O 0  0  0  0  0  0  0  0  0  0  0  0
   33.3470   -0.1260   10.9280   C 0  0  0  0  0  0  0  0  0  0  0  0
   33.3020   -0.8960   12.5650   S 0  0  0  0  0  0  0  0  0  0  0  0
   31.7390    0.0410   13.4710   S 0  0  0  0  0  0  0  0  0  0  0  0
   30.9250   -1.2360   14.4630   C 0  0  0  0  0  0  0  0  0  0  0  0
   31.9120   -2.1260   15.2080   C 0  0  0  0  0  0  0  0  0  0  0  0
   32.9180   -1.3530   15.8270   O 0  0  0  0  0  0  0  0  0  0  0  0
  1  2  1  0  0  0  0
  1  3  1  0  0  0  0
  3  4  1  0  0  0  0
  4  5  1  0  0  0  0
  5  6  1  0  0  0  0
  6  7  1  0  0  0  0
  7  8  1  0  0  0  0
M  END
>  <InstanceId>
3DN1_HED_A_904

>  <ChemCompId>
HED

>  <PdbId>
3DN1

>  <ChainId>
A

>  <ResidueNumber>
904

>  <InsertionCode>


>  <Model>
1

>  <AltIds>


>  <MissingHeavyAtoms>
0

>  <ObservedFormula>
C4 O2 S2

>  <Name>
2-HYDROXYETHYL DISULFIDE

>  <SystematicName>
2-(2-hydroxyethyldisulfanyl)ethanol

>  <Synonyms>


>  <Type>
NON-POLYMER

>  <Formula>
C4 H10 O2 S2

>  <MolecularWeight>
154.251

>  <ModifiedDate>
2011-06-04

>  <Parent>


>  <OneLetterCode>


>  <SubcomponentList>


>  <AmbiguousFlag>
N

>  <InChI>
InChI=1S/C4H10O2S2/c5-1-3-7-8-4-2-6/h5-6H,1-4H2

>  <InChIKey>
KYNFOMQIXZUKRK-UHFFFAOYSA-N

>  <SMILES>
C(CSSCCO)O

$$$$
3DN2_HED_A_904
  RCSB PDB12061708203D
Coordinates from PDB:3DN2:A:904 Model:1 without hydrogens
  8  7  0  0  0  0            999 V2000
   33.2100   -1.0710    9.8390   C 0  0  0  0  0  0  0  0  0  0  0  0
   31.9220   -1.6260    9.7180   O 0  0  0  0  0  0  0  0  0  0  0  0
   33.2310   -0.0880   10.9990   C 0  0  0  0  0  0  0  0  0  0  0  0
   33.1390   -0.8960   12.6140   S 0  0  0  0  0  0  0  0  0  0  0  0
   31.5310    0.0050   13.4830   S 0  0  0  0  0  0  0  0  0  0  0  0
   30.7590   -1.2850   14.4910   C 0  0  0  0  0  0  0  0  0  0  0  0
   31.7810   -2.1520   15.2140   C 0  0  0  0  0  0  0  0  0  0  0  0
   32.7610   -1.3480   15.8340   O 0  0  0  0  0  0  0  0  0  0  0  0
  1  2  1  0  0  0  0
  1  3  1  0  0  0  0
  3  4  1  0  0  0  0
  4  5  1  0  0  0  0
  5  6  1  0  0  0  0
  6  7  1  0  0  0  0
  7  8  1  0  0  0  0
M  END
>  <InstanceId>
3DN2_HED_A_904

>  <ChemCompId>
HED

>  <PdbId>
3DN2

>  <ChainId>
A

>  <ResidueNumber>
904

>  <InsertionCode>


>  <Model>
1

>  <AltIds>


>  <MissingHeavyAtoms>
0

>  <ObservedFormula>
C4 O2 S2

>  <Name>
2-HYDROXYETHYL DISULFIDE

>  <SystematicName>
2-(2-hydroxyethyldisulfanyl)ethanol

>  <Synonyms>


>  <Type>
NON-POLYMER

>  <Formula>
C4 H10 O2 S2

>  <MolecularWeight>
154.251

>  <ModifiedDate>
2011-06-04

>  <Parent>


>  <OneLetterCode>


>  <SubcomponentList>


>  <AmbiguousFlag>
N

>  <InChI>
InChI=1S/C4H10O2S2/c5-1-3-7-8-4-2-6/h5-6H,1-4H2

>  <InChIKey>
KYNFOMQIXZUKRK-UHFFFAOYSA-N

>  <SMILES>
C(CSSCCO)O

$$$$
3DN3_HED_A_903
  RCSB PDB12061708203D
Coordinates from PDB:3DN3:A:903 Model:1 without hydrogens
  8  7  0  0  0  0            999 V2000
   26.6980   -1.0460   13.1410   C 0  0  0  0  0  0  0  0  0  0  0  0
   27.7620   -1.2180   12.2350   O 0  0  0  0  0  0  0  0  0  0  0  0
   27.2380   -1.1850   14.5560   C 0  0  0  0  0  0  0  0  0  0  0  0
   25.9430   -0.9940   15.8000   S 0  0  0  0  0  0  0  0  0  0  0  0
   25.9430    0.9920   16.2560   S 0  0  0  0  0  0  0  0  0  0  0  0
   27.2390    1.1840   17.5000   C 0  0  0  0  0  0  0  0  0  0  0  0
   26.6980    1.0460   18.9150   C 0  0  0  0  0  0  0  0  0  0  0  0
   27.7640    1.2160   19.8200   O 0  0  0  0  0  0  0  0  0  0  0  0
  1  2  1  0  0  0  0
  1  3  1  0  0  0  0
  3  4  1  0  0  0  0
  4  5  1  0  0  0  0
  5  6  1  0  0  0  0
  6  7  1  0  0  0  0
  7  8  1  0  0  0  0
M  END
>  <InstanceId>
3DN3_HED_A_903

>  <ChemCompId>
HED

>  <PdbId>
3DN3

>  <ChainId>
A

>  <ResidueNumber>
903

>  <InsertionCode>


>  <Model>
1

>  <AltIds>


>  <MissingHeavyAtoms>
0

>  <ObservedFormula>
C4 O2 S2

>  <Name>
2-HYDROXYETHYL DISULFIDE

>  <SystematicName>
2-(2-hydroxyethyldisulfanyl)ethanol

>  <Synonyms>


>  <Type>
NON-POLYMER

>  <Formula>
C4 H10 O2 S2

>  <MolecularWeight>
154.251

>  <ModifiedDate>
2011-06-04

>  <Parent>


>  <OneLetterCode>


>  <SubcomponentList>


>  <AmbiguousFlag>
N

>  <InChI>
InChI=1S/C4H10O2S2/c5-1-3-7-8-4-2-6/h5-6H,1-4H2

>  <InChIKey>
KYNFOMQIXZUKRK-UHFFFAOYSA-N

>  <SMILES>
C(CSSCCO)O

$$$$
3DN4_HED_A_903
  RCSB PDB12061708203D
Coordinates from PDB:3DN4:A:903 Model:1 without hydrogens
  8  7  0  0  0  0            999 V2000
   33.1110   -1.2140    9.8290   C 0  0  0  0  0  0  0  0  0  0  0  0
   31.8350   -1.7760    9.6390   O 0  0  0  0  0  0  0  0  0  0  0  0
   33.0370   -0.1680   10.9300   C 0  0  0  0  0  0  0  0  0  0  0  0
   33.2170   -0.8720   12.5870   S 0  0  0  0  0  0  0  0  0  0  0  0
   31.6860   -0.0240   13.6270   S 0  0  0  0  0  0  0  0  0  0  0  0
   31.0030   -1.3560   14.6420   C 0  0  0  0  0  0  0  0  0  0  0  0
   32.0710   -2.1900   15.3330   C 0  0  0  0  0  0  0  0  0  0  0  0
   32.9630   -1.3560   16.0380   O 0  0  0  0  0  0  0  0  0  0  0  0
  1  2  1  0  0  0  0
  1  3  1  0  0  0  0
  3  4  1  0  0  0  0
  4  5  1  0  0  0  0
  5  6  1  0  0  0  0
  6  7  1  0  0  0  0
  7  8  1  0  0  0  0
M  END
>  <InstanceId>
3DN4_HED_A_903

>  <ChemCompId>
HED

>  <PdbId>
3DN4

>  <ChainId>
A

>  <ResidueNumber>
903

>  <InsertionCode>


>  <Model>
1

>  <AltIds>


>  <MissingHeavyAtoms>
0

>  <ObservedFormula>
C4 O2 S2

>  <Name>
2-HYDROXYETHYL DISULFIDE

>  <SystematicName>
2-(2-hydroxyethyldisulfanyl)ethanol

>  <Synonyms>


>  <Type>
NON-POLYMER

>  <Formula>
C4 H10 O2 S2

>  <MolecularWeight>
154.251

>  <ModifiedDate>
2011-06-04

>  <Parent>


>  <OneLetterCode>


>  <SubcomponentList>


>  <AmbiguousFlag>
N

>  <InChI>
InChI=1S/C4H10O2S2/c5-1-3-7-8-4-2-6/h5-6H,1-4H2

>  <InChIKey>
KYNFOMQIXZUKRK-UHFFFAOYSA-N

>  <SMILES>
C(CSSCCO)O

$$$$
3DN6_HED_A_904
  RCSB PDB12061708203D
Coordinates from PDB:3DN6:A:904 Model:1 without hydrogens
  8  7  0  0  0  0            999 V2000
   32.9280   -1.3380    9.8980   C 0  0  0  0  0  0  0  0  0  0  0  0
   31.6090   -1.8010   10.0830   O 0  0  0  0  0  0  0  0  0  0  0  0
   33.2390   -0.2840   10.9490   C 0  0  0  0  0  0  0  0  0  0  0  0
   33.2390   -0.9650   12.6260   S 0  0  0  0  0  0  0  0  0  0  0  0
   31.7190    0.0460   13.5290   S 0  0  0  0  0  0  0  0  0  0  0  0
   30.8710   -1.2030   14.5290   C 0  0  0  0  0  0  0  0  0  0  0  0
   31.8310   -2.1170   15.2830   C 0  0  0  0  0  0  0  0  0  0  0  0
   32.8450   -1.3610   15.9100   O 0  0  0  0  0  0  0  0  0  0  0  0
  1  2  1  0  0  0  0
  1  3  1  0  0  0  0
  3  4  1  0  0  0  0
  4  5  1  0  0  0  0
  5  6  1  0  0  0  0
  6  7  1  0  0  0  0
  7  8  1  0  0  0  0
M  END
>  <InstanceId>
3DN6_HED_A_904

>  <ChemCompId>
HED

>  <PdbId>
3DN6

>  <ChainId>
A

>  <ResidueNumber>
904

>  <InsertionCode>


>  <Model>
1

>  <AltIds>


>  <MissingHeavyAtoms>
0

>  <ObservedFormula>
C4 O2 S2

>  <Name>
2-HYDROXYETHYL DISULFIDE

>  <SystematicName>
2-(2-hydroxyethyldisulfanyl)ethanol

>  <Synonyms>


>  <Type>
NON-POLYMER

>  <Formula>
C4 H10 O2 S2

>  <MolecularWeight>
154.251

>  <ModifiedDate>
2011-06-04

>  <Parent>


>  <OneLetterCode>


>  <SubcomponentList>


>  <AmbiguousFlag>
N

>  <InChI>
InChI=1S/C4H10O2S2/c5-1-3-7-8-4-2-6/h5-6H,1-4H2

>  <InChIKey>
KYNFOMQIXZUKRK-UHFFFAOYSA-N

>  <SMILES>
C(CSSCCO)O

$$$$
3DN8_HED_A_903
  RCSB PDB12061708203D
Coordinates from PDB:3DN8:A:903 Model:1 without hydrogens
  8  7  0  0  0  0            999 V2000
   33.4720   18.3100    4.9990   C 0  0  0  0  0  0  0  0  0  0  0  0
   33.2980   18.7000    3.6530   O 0  0  0  0  0  0  0  0  0  0  0  0
   33.9930   19.4840    5.8200   C 0  0  0  0  0  0  0  0  0  0  0  0
   32.8300   20.8680    5.8410   S 0  0  0  0  0  0  0  0  0  0  0  0
   31.2380   20.1910    6.9230   S 0  0  0  0  0  0  0  0  0  0  0  0
   30.9010   21.5330    8.0940   C 0  0  0  0  0  0  0  0  0  0  0  0
   32.1330   21.9820    8.8710   C 0  0  0  0  0  0  0  0  0  0  0  0
   32.2050   21.2980   10.1040   O 0  0  0  0  0  0  0  0  0  0  0  0
  1  2  1  0  0  0  0
  1  3  1  0  0  0  0
  3  4  1  0  0  0  0
  4  5  1  0  0  0  0
  5  6  1  0  0  0  0
  6  7  1  0  0  0  0
  7  8  1  0  0  0  0
M  END
>  <InstanceId>
3DN8_HED_A_903

>  <ChemCompId>
HED

>  <PdbId>
3DN8

>  <ChainId>
A

>  <ResidueNumber>
903

>  <InsertionCode>


>  <Model>
1

>  <AltIds>


>  <MissingHeavyAtoms>
0

>  <ObservedFormula>
C4 O2 S2

>  <Name>
2-HYDROXYETHYL DISULFIDE

>  <SystematicName>
2-(2-hydroxyethyldisulfanyl)ethanol

>  <Synonyms>


>  <Type>
NON-POLYMER

>  <Formula>
C4 H10 O2 S2

>  <MolecularWeight>
154.251

>  <ModifiedDate>
2011-06-04

>  <Parent>


>  <OneLetterCode>


>  <SubcomponentList>


>  <AmbiguousFlag>
N

>  <InChI>
InChI=1S/C4H10O2S2/c5-1-3-7-8-4-2-6/h5-6H,1-4H2

>  <InChIKey>
KYNFOMQIXZUKRK-UHFFFAOYSA-N

>  <SMILES>
C(CSSCCO)O

$$$$
3DNA_HED_A_903
  RCSB PDB12061708203D
Coordinates from PDB:3DNA:A:903 Model:1 without hydrogens
  8  7  0  0  0  0            999 V2000
   33.4560   18.2220    4.8970   C 0  0  0  0  0  0  0  0  0  0  0  0
   33.1520   18.5250    3.5520   O 0  0  0  0  0  0  0  0  0  0  0  0
   33.9120   19.4780    5.6330   C 0  0  0  0  0  0  0  0  0  0  0  0
   32.6490   20.7740    5.6440   S 0  0  0  0  0  0  0  0  0  0  0  0
   31.1000   19.9850    6.7130   S 0  0  0  0  0  0  0  0  0  0  0  0
   30.6970   21.2620    7.9350   C 0  0  0  0  0  0  0  0  0  0  0  0
   31.9240   21.8530    8.6190   C 0  0  0  0  0  0  0  0  0  0  0  0
   32.0820   21.2950    9.9060   O 0  0  0  0  0  0  0  0  0  0  0  0
  1  2  1  0  0  0  0
  1  3  1  0  0  0  0
  3  4  1  0  0  0  0
  4  5  1  0  0  0  0
  5  6  1  0  0  0  0
  6  7  1  0  0  0  0
  7  8  1  0  0  0  0
M  END
>  <InstanceId>
3DNA_HED_A_903

>  <ChemCompId>
HED

>  <PdbId>
3DNA

>  <ChainId>
A

>  <ResidueNumber>
903

>  <InsertionCode>


>  <Model>
1

>  <AltIds>


>  <MissingHeavyAtoms>
0

>  <ObservedFormula>
C4 O2 S2

>  <Name>
2-HYDROXYETHYL DISULFIDE

>  <SystematicName>
2-(2-hydroxyethyldisulfanyl)ethanol

>  <Synonyms>


>  <Type>
NON-POLYMER

>  <Formula>
C4 H10 O2 S2

>  <MolecularWeight>
154.251

>  <ModifiedDate>
2011-06-04

>  <Parent>


>  <OneLetterCode>


>  <SubcomponentList>


>  <AmbiguousFlag>
N

>  <InChI>
InChI=1S/C4H10O2S2/c5-1-3-7-8-4-2-6/h5-6H,1-4H2

>  <InChIKey>
KYNFOMQIXZUKRK-UHFFFAOYSA-N

>  <SMILES>
C(CSSCCO)O

$$$$
3HH3_HED_A_165
  RCSB PDB12061708533D
Coordinates from PDB:3HH3:A:165 Model:1 without hydrogens
  8  7  0  0  0  0            999 V2000
   30.9970    1.7980   17.0590   C 0  0  0  0  0  0  0  0  0  0  0  0
   29.6260    1.4740   17.1140   O 0  0  0  0  0  0  0  0  0  0  0  0
   31.8100    0.6800   17.6950   C 0  0  0  0  0  0  0  0  0  0  0  0
   33.2560    1.3110   18.5790   S 0  0  0  0  0  0  0  0  0  0  0  0
   33.2590    0.1920   20.2720   S 0  0  0  0  0  0  0  0  0  0  0  0
   31.8360    0.8510   21.1710   C 0  0  0  0  0  0  0  0  0  0  0  0
   32.2710    2.0380   22.0090   C 0  0  0  0  0  0  0  0  0  0  0  0
   33.5550    1.7530   22.5200   O 0  0  0  0  0  0  0  0  0  0  0  0
  1  2  1  0  0  0  0
  1  3  1  0  0  0  0
  3  4  1  0  0  0  0
  4  5  1  0  0  0  0
  5  6  1  0  0  0  0
  6  7  1  0  0  0  0
  7  8  1  0  0  0  0
M  END
>  <InstanceId>
3HH3_HED_A_165

>  <ChemCompId>
HED

>  <PdbId>
3HH3

>  <ChainId>
A

>  <ResidueNumber>
165

>  <InsertionCode>


>  <Model>
1

>  <AltIds>


>  <MissingHeavyAtoms>
0

>  <ObservedFormula>
C4 O2 S2

>  <Name>
2-HYDROXYETHYL DISULFIDE

>  <SystematicName>
2-(2-hydroxyethyldisulfanyl)ethanol

>  <Synonyms>


>  <Type>
NON-POLYMER

>  <Formula>
C4 H10 O2 S2

>  <MolecularWeight>
154.251

>  <ModifiedDate>
2011-06-04

>  <Parent>


>  <OneLetterCode>


>  <SubcomponentList>


>  <AmbiguousFlag>
N

>  <InChI>
InChI=1S/C4H10O2S2/c5-1-3-7-8-4-2-6/h5-6H,1-4H2

>  <InChIKey>
KYNFOMQIXZUKRK-UHFFFAOYSA-N

>  <SMILES>
C(CSSCCO)O

$$$$
3HH4_HED_A_165
  RCSB PDB12061708533D
Coordinates from PDB:3HH4:A:165 Model:1 without hydrogens
  8  7  0  0  0  0            999 V2000
   31.2140    1.5940   17.0110   C 0  0  0  0  0  0  0  0  0  0  0  0
   29.8200    1.5690   17.2130   O 0  0  0  0  0  0  0  0  0  0  0  0
   31.8710    0.5730   17.9250   C 0  0  0  0  0  0  0  0  0  0  0  0
   33.3580    1.2630   18.6820   S 0  0  0  0  0  0  0  0  0  0  0  0
   33.3960    0.3290   20.4690   S 0  0  0  0  0  0  0  0  0  0  0  0
   32.0040    1.0810   21.3350   C 0  0  0  0  0  0  0  0  0  0  0  0
   32.5330    2.2040   22.2050   C 0  0  0  0  0  0  0  0  0  0  0  0
   33.8500    1.8730   22.5990   O 0  0  0  0  0  0  0  0  0  0  0  0
  1  2  1  0  0  0  0
  1  3  1  0  0  0  0
  3  4  1  0  0  0  0
  4  5  1  0  0  0  0
  5  6  1  0  0  0  0
  6  7  1  0  0  0  0
  7  8  1  0  0  0  0
M  END
>  <InstanceId>
3HH4_HED_A_165

>  <ChemCompId>
HED

>  <PdbId>
3HH4

>  <ChainId>
A

>  <ResidueNumber>
165

>  <InsertionCode>


>  <Model>
1

>  <AltIds>


>  <MissingHeavyAtoms>
0

>  <ObservedFormula>
C4 O2 S2

>  <Name>
2-HYDROXYETHYL DISULFIDE

>  <SystematicName>
2-(2-hydroxyethyldisulfanyl)ethanol

>  <Synonyms>


>  <Type>
NON-POLYMER

>  <Formula>
C4 H10 O2 S2

>  <MolecularWeight>
154.251

>  <ModifiedDate>
2011-06-04

>  <Parent>


>  <OneLetterCode>


>  <SubcomponentList>


>  <AmbiguousFlag>
N

>  <InChI>
InChI=1S/C4H10O2S2/c5-1-3-7-8-4-2-6/h5-6H,1-4H2

>  <InChIKey>
KYNFOMQIXZUKRK-UHFFFAOYSA-N

>  <SMILES>
C(CSSCCO)O

$$$$
3HH5_HED_A_165
  RCSB PDB12061708533D
Coordinates from PDB:3HH5:A:165 Model:1 without hydrogens
  8  7  0  0  0  0            999 V2000
   31.9710    1.8960   16.1280   C 0  0  0  0  0  0  0  0  0  0  0  0
   33.0930    1.2840   15.5290   O 0  0  0  0  0  0  0  0  0  0  0  0
   31.7380    1.3160   17.5130   C 0  0  0  0  0  0  0  0  0  0  0  0
   33.2170    1.4170   18.5510   S 0  0  0  0  0  0  0  0  0  0  0  0
   32.9170   -0.0280   19.9450   S 0  0  0  0  0  0  0  0  0  0  0  0
   31.7450    0.7130   21.1080   C 0  0  0  0  0  0  0  0  0  0  0  0
   32.4430    1.6870   22.0440   C 0  0  0  0  0  0  0  0  0  0  0  0
   33.6940    1.1540   22.4000   O 0  0  0  0  0  0  0  0  0  0  0  0
  1  2  1  0  0  0  0
  1  3  1  0  0  0  0
  3  4  1  0  0  0  0
  4  5  1  0  0  0  0
  5  6  1  0  0  0  0
  6  7  1  0  0  0  0
  7  8  1  0  0  0  0
M  END
>  <InstanceId>
3HH5_HED_A_165

>  <ChemCompId>
HED

>  <PdbId>
3HH5

>  <ChainId>
A

>  <ResidueNumber>
165

>  <InsertionCode>


>  <Model>
1

>  <AltIds>


>  <MissingHeavyAtoms>
0

>  <ObservedFormula>
C4 O2 S2

>  <Name>
2-HYDROXYETHYL DISULFIDE

>  <SystematicName>
2-(2-hydroxyethyldisulfanyl)ethanol

>  <Synonyms>


>  <Type>
NON-POLYMER

>  <Formula>
C4 H10 O2 S2

>  <MolecularWeight>
154.251

>  <ModifiedDate>
2011-06-04

>  <Parent>


>  <OneLetterCode>


>  <SubcomponentList>


>  <AmbiguousFlag>
N

>  <InChI>
InChI=1S/C4H10O2S2/c5-1-3-7-8-4-2-6/h5-6H,1-4H2

>  <InChIKey>
KYNFOMQIXZUKRK-UHFFFAOYSA-N

>  <SMILES>
C(CSSCCO)O

$$$$
3HH6_HED_A_165
  RCSB PDB12061708533D
Coordinates from PDB:3HH6:A:165 Model:1 without hydrogens
  8  7  0  0  0  0            999 V2000
   31.1290    1.4940   17.0510   C 0  0  0  0  0  0  0  0  0  0  0  0
   29.7880    1.1160   16.8470   O 0  0  0  0  0  0  0  0  0  0  0  0
   31.7610    0.5010   18.0130   C 0  0  0  0  0  0  0  0  0  0  0  0
   33.2680    1.1780   18.7410   S 0  0  0  0  0  0  0  0  0  0  0  0
   33.3260    0.3110   20.5630   S 0  0  0  0  0  0  0  0  0  0  0  0
   31.8630    0.9860   21.3770   C 0  0  0  0  0  0  0  0  0  0  0  0
   32.2320    2.2550   22.1180   C 0  0  0  0  0  0  0  0  0  0  0  0
   33.5450    2.1180   22.6180   O 0  0  0  0  0  0  0  0  0  0  0  0
  1  2  1  0  0  0  0
  1  3  1  0  0  0  0
  3  4  1  0  0  0  0
  4  5  1  0  0  0  0
  5  6  1  0  0  0  0
  6  7  1  0  0  0  0
  7  8  1  0  0  0  0
M  END
>  <InstanceId>
3HH6_HED_A_165

>  <ChemCompId>
HED

>  <PdbId>
3HH6

>  <ChainId>
A

>  <ResidueNumber>
165

>  <InsertionCode>


>  <Model>
1

>  <AltIds>


>  <MissingHeavyAtoms>
0

>  <ObservedFormula>
C4 O2 S2

>  <Name>
2-HYDROXYETHYL DISULFIDE

>  <SystematicName>
2-(2-hydroxyethyldisulfanyl)ethanol

>  <Synonyms>


>  <Type>
NON-POLYMER

>  <Formula>
C4 H10 O2 S2

>  <MolecularWeight>
154.251

>  <ModifiedDate>
2011-06-04

>  <Parent>


>  <OneLetterCode>


>  <SubcomponentList>


>  <AmbiguousFlag>
N

>  <InChI>
InChI=1S/C4H10O2S2/c5-1-3-7-8-4-2-6/h5-6H,1-4H2

>  <InChIKey>
KYNFOMQIXZUKRK-UHFFFAOYSA-N

>  <SMILES>
C(CSSCCO)O

$$$$
4E97_HED_A_209
  RCSB PDB12061712213D
Coordinates from PDB:4E97:A:209 Model:1 without hydrogens
  8  7  0  0  0  0            999 V2000
    0.7100   19.4010   -2.9540   C 0  0  0  0  0  0  0  0  0  0  0  0
    2.0890   19.4150   -2.7620   O 0  0  0  0  0  0  0  0  0  0  0  0
    0.1190   20.6340   -2.2950   C 0  0  0  0  0  0  0  0  0  0  0  0
   -1.6590   20.6280   -2.5980   S 0  0  0  0  0  0  0  0  0  0  0  0
   -2.5060   21.2970   -0.8670   S 0  0  0  0  0  0  0  0  0  0  0  0
   -3.4000   22.8250   -1.2710   C 0  0  0  0  0  0  0  0  0  0  0  0
   -4.6080   23.0940   -0.3610   C 0  0  0  0  0  0  0  0  0  0  0  0
   -5.2360   21.9080    0.0990   O 0  0  0  0  0  0  0  0  0  0  0  0
  1  2  1  0  0  0  0
  1  3  1  0  0  0  0
  3  4  1  0  0  0  0
  4  5  1  0  0  0  0
  5  6  1  0  0  0  0
  6  7  1  0  0  0  0
  7  8  1  0  0  0  0
M  END
>  <InstanceId>
4E97_HED_A_209

>  <ChemCompId>
HED

>  <PdbId>
4E97

>  <ChainId>
A

>  <ResidueNumber>
209

>  <InsertionCode>


>  <Model>
1

>  <AltIds>


>  <MissingHeavyAtoms>
0

>  <ObservedFormula>
C4 O2 S2

>  <Name>
2-HYDROXYETHYL DISULFIDE

>  <SystematicName>
2-(2-hydroxyethyldisulfanyl)ethanol

>  <Synonyms>


>  <Type>
NON-POLYMER

>  <Formula>
C4 H10 O2 S2

>  <MolecularWeight>
154.251

>  <ModifiedDate>
2011-06-04

>  <Parent>


>  <OneLetterCode>


>  <SubcomponentList>


>  <AmbiguousFlag>
N

>  <InChI>
InChI=1S/C4H10O2S2/c5-1-3-7-8-4-2-6/h5-6H,1-4H2

>  <InChIKey>
KYNFOMQIXZUKRK-UHFFFAOYSA-N

>  <SMILES>
C(CSSCCO)O

$$$$
4EKP_HED_B_207
  RCSB PDB12061712243D
Coordinates from PDB:4EKP:B:207 Model:1 without hydrogens
  8  7  0  0  0  0            999 V2000
   47.2220   21.1560   -1.9830   C 0  0  0  0  0  0  0  0  0  0  0  0
   47.0450   20.3380   -3.1190   O 0  0  0  0  0  0  0  0  0  0  0  0
   45.9230   21.2270   -1.1910   C 0  0  0  0  0  0  0  0  0  0  0  0
   45.0100   22.7620   -1.5000   S 0  0  0  0  0  0  0  0  0  0  0  0
   43.5790   22.7790   -0.0430   S 0  0  0  0  0  0  0  0  0  0  0  0
   44.4250   22.0530    1.3860   C 0  0  0  0  0  0  0  0  0  0  0  0
   44.3410   22.8950    2.6540   C 0  0  0  0  0  0  0  0  0  0  0  0
   43.2460   22.4760    3.4350   O 0  0  0  0  0  0  0  0  0  0  0  0
  1  2  1  0  0  0  0
  1  3  1  0  0  0  0
  3  4  1  0  0  0  0
  4  5  1  0  0  0  0
  5  6  1  0  0  0  0
  6  7  1  0  0  0  0
  7  8  1  0  0  0  0
M  END
>  <InstanceId>
4EKP_HED_B_207

>  <ChemCompId>
HED

>  <PdbId>
4EKP

>  <ChainId>
B

>  <ResidueNumber>
207

>  <InsertionCode>


>  <Model>
1

>  <AltIds>


>  <MissingHeavyAtoms>
0

>  <ObservedFormula>
C4 O2 S2

>  <Name>
2-HYDROXYETHYL DISULFIDE

>  <SystematicName>
2-(2-hydroxyethyldisulfanyl)ethanol

>  <Synonyms>


>  <Type>
NON-POLYMER

>  <Formula>
C4 H10 O2 S2

>  <MolecularWeight>
154.251

>  <ModifiedDate>
2011-06-04

>  <Parent>


>  <OneLetterCode>


>  <SubcomponentList>


>  <AmbiguousFlag>
N

>  <InChI>
InChI=1S/C4H10O2S2/c5-1-3-7-8-4-2-6/h5-6H,1-4H2

>  <InChIKey>
KYNFOMQIXZUKRK-UHFFFAOYSA-N

>  <SMILES>
C(CSSCCO)O

$$$$
4EKQ_HED_A_207
  RCSB PDB12061712243D
Coordinates from PDB:4EKQ:A:207 Model:1 without hydrogens
  8  7  0  0  0  0            999 V2000
   -5.0350   22.8730    0.6620   C 0  0  0  0  0  0  0  0  0  0  0  0
   -6.0270   23.8600    0.7550   O 0  0  0  0  0  0  0  0  0  0  0  0
   -4.8890   22.5220   -0.8050   C 0  0  0  0  0  0  0  0  0  0  0  0
   -3.3350   23.1150   -1.4980   S 0  0  0  0  0  0  0  0  0  0  0  0
   -2.1880   21.6560   -0.6920   S 0  0  0  0  0  0  0  0  0  0  0  0
   -0.8660   21.4920   -1.9140   C 0  0  0  0  0  0  0  0  0  0  0  0
   -1.2520   20.6990   -3.1550   C 0  0  0  0  0  0  0  0  0  0  0  0
   -0.0860   20.5030   -3.9370   O 0  0  0  0  0  0  0  0  0  0  0  0
  1  2  1  0  0  0  0
  1  3  1  0  0  0  0
  3  4  1  0  0  0  0
  4  5  1  0  0  0  0
  5  6  1  0  0  0  0
  6  7  1  0  0  0  0
  7  8  1  0  0  0  0
M  END
>  <InstanceId>
4EKQ_HED_A_207

>  <ChemCompId>
HED

>  <PdbId>
4EKQ

>  <ChainId>
A

>  <ResidueNumber>
207

>  <InsertionCode>


>  <Model>
1

>  <AltIds>


>  <MissingHeavyAtoms>
0

>  <ObservedFormula>
C4 O2 S2

>  <Name>
2-HYDROXYETHYL DISULFIDE

>  <SystematicName>
2-(2-hydroxyethyldisulfanyl)ethanol

>  <Synonyms>


>  <Type>
NON-POLYMER

>  <Formula>
C4 H10 O2 S2

>  <MolecularWeight>
154.251

>  <ModifiedDate>
2011-06-04

>  <Parent>


>  <OneLetterCode>


>  <SubcomponentList>


>  <AmbiguousFlag>
N

>  <InChI>
InChI=1S/C4H10O2S2/c5-1-3-7-8-4-2-6/h5-6H,1-4H2

>  <InChIKey>
KYNFOMQIXZUKRK-UHFFFAOYSA-N

>  <SMILES>
C(CSSCCO)O

$$$$
4EKR_HED_A_208
  RCSB PDB12061712243D
Coordinates from PDB:4EKR:A:208 Model:1 without hydrogens
  8  7  0  0  0  0            999 V2000
   -4.3850   23.4210   -0.2050   C 0  0  0  0  0  0  0  0  0  0  0  0
   -5.7530   23.0980   -0.0560   O 0  0  0  0  0  0  0  0  0  0  0  0
   -3.6690   22.9210   -1.4930   C 0  0  0  0  0  0  0  0  0  0  0  0
   -2.3690   21.7750   -0.9940   S 0  0  0  0  0  0  0  0  0  0  0  0
   -1.4210   20.8130   -2.5470   S 0  0  0  0  0  0  0  0  0  0  0  0
    0.3940   20.8050   -2.6590   C 0  0  0  0  0  0  0  0  0  0  0  0
    1.0870   19.4880   -3.0490   C 0  0  0  0  0  0  0  0  0  0  0  0
    2.4800   19.4550   -2.8640   O 0  0  0  0  0  0  0  0  0  0  0  0
  1  2  1  0  0  0  0
  1  3  1  0  0  0  0
  3  4  1  0  0  0  0
  4  5  1  0  0  0  0
  5  6  1  0  0  0  0
  6  7  1  0  0  0  0
  7  8  1  0  0  0  0
M  END
>  <InstanceId>
4EKR_HED_A_208

>  <ChemCompId>
HED

>  <PdbId>
4EKR

>  <ChainId>
A

>  <ResidueNumber>
208

>  <InsertionCode>


>  <Model>
1

>  <AltIds>


>  <MissingHeavyAtoms>
0

>  <ObservedFormula>
C4 O2 S2

>  <Name>
2-HYDROXYETHYL DISULFIDE

>  <SystematicName>
2-(2-hydroxyethyldisulfanyl)ethanol

>  <Synonyms>


>  <Type>
NON-POLYMER

>  <Formula>
C4 H10 O2 S2

>  <MolecularWeight>
154.251

>  <ModifiedDate>
2011-06-04

>  <Parent>


>  <OneLetterCode>


>  <SubcomponentList>


>  <AmbiguousFlag>
N

>  <InChI>
InChI=1S/C4H10O2S2/c5-1-3-7-8-4-2-6/h5-6H,1-4H2

>  <InChIKey>
KYNFOMQIXZUKRK-UHFFFAOYSA-N

>  <SMILES>
C(CSSCCO)O

$$$$
4EKS_HED_B_207
  RCSB PDB12061712243D
Coordinates from PDB:4EKS:B:207 Model:1 without hydrogens
  8  7  0  0  0  0            999 V2000
   45.8110   20.3520   -1.9300   C 0  0  0  0  0  0  0  0  0  0  0  0
   46.8500   20.7120   -2.8120   O 0  0  0  0  0  0  0  0  0  0  0  0
   45.6440   21.4010   -0.8390   C 0  0  0  0  0  0  0  0  0  0  0  0
   44.8260   22.8940   -1.4380   S 0  0  0  0  0  0  0  0  0  0  0  0
   43.2940   23.2270   -0.1230   S 0  0  0  0  0  0  0  0  0  0  0  0
   42.8430   21.6420    0.6190   C 0  0  0  0  0  0  0  0  0  0  0  0
   42.8070   21.6810    2.1520   C 0  0  0  0  0  0  0  0  0  0  0  0
   42.1350   20.5420    2.6770   O 0  0  0  0  0  0  0  0  0  0  0  0
  1  2  1  0  0  0  0
  1  3  1  0  0  0  0
  3  4  1  0  0  0  0
  4  5  1  0  0  0  0
  5  6  1  0  0  0  0
  6  7  1  0  0  0  0
  7  8  1  0  0  0  0
M  END
>  <InstanceId>
4EKS_HED_B_207

>  <ChemCompId>
HED

>  <PdbId>
4EKS

>  <ChainId>
B

>  <ResidueNumber>
207

>  <InsertionCode>


>  <Model>
1

>  <AltIds>


>  <MissingHeavyAtoms>
0

>  <ObservedFormula>
C4 O2 S2

>  <Name>
2-HYDROXYETHYL DISULFIDE

>  <SystematicName>
2-(2-hydroxyethyldisulfanyl)ethanol

>  <Synonyms>


>  <Type>
NON-POLYMER

>  <Formula>
C4 H10 O2 S2

>  <MolecularWeight>
154.251

>  <ModifiedDate>
2011-06-04

>  <Parent>


>  <OneLetterCode>


>  <SubcomponentList>


>  <AmbiguousFlag>
N

>  <InChI>
InChI=1S/C4H10O2S2/c5-1-3-7-8-4-2-6/h5-6H,1-4H2

>  <InChIKey>
KYNFOMQIXZUKRK-UHFFFAOYSA-N

>  <SMILES>
C(CSSCCO)O

$$$$
4I7J_HED_A_210
  RCSB PDB12061712583D
Coordinates from PDB:4I7J:A:210 Model:1 without hydrogens
  8  7  0  0  0  0            999 V2000
    0.5950   21.0790   -3.2890   C 0  0  0  0  0  0  0  0  0  0  0  0
    1.7730   20.4920   -2.7600   O 0  0  0  0  0  0  0  0  0  0  0  0
   -0.1360   21.6600   -2.1280   C 0  0  0  0  0  0  0  0  0  0  0  0
   -1.8650   22.0390   -2.3810   S 0  0  0  0  0  0  0  0  0  0  0  0
   -2.6020   22.9700   -0.7360   S 0  0  0  0  0  0  0  0  0  0  0  0
   -1.3430   23.0660    0.5440   C 0  0  0  0  0  0  0  0  0  0  0  0
   -1.7590   23.5940    1.9230   C 0  0  0  0  0  0  0  0  0  0  0  0
   -2.6130   22.7380    2.5820   O 0  0  0  0  0  0  0  0  0  0  0  0
  1  2  1  0  0  0  0
  1  3  1  0  0  0  0
  3  4  1  0  0  0  0
  4  5  1  0  0  0  0
  5  6  1  0  0  0  0
  6  7  1  0  0  0  0
  7  8  1  0  0  0  0
M  END
>  <InstanceId>
4I7J_HED_A_210

>  <ChemCompId>
HED

>  <PdbId>
4I7J

>  <ChainId>
A

>  <ResidueNumber>
210

>  <InsertionCode>


>  <Model>
1

>  <AltIds>


>  <MissingHeavyAtoms>
0

>  <ObservedFormula>
C4 O2 S2

>  <Name>
2-HYDROXYETHYL DISULFIDE

>  <SystematicName>
2-(2-hydroxyethyldisulfanyl)ethanol

>  <Synonyms>


>  <Type>
NON-POLYMER

>  <Formula>
C4 H10 O2 S2

>  <MolecularWeight>
154.251

>  <ModifiedDate>
2011-06-04

>  <Parent>


>  <OneLetterCode>


>  <SubcomponentList>


>  <AmbiguousFlag>
N

>  <InChI>
InChI=1S/C4H10O2S2/c5-1-3-7-8-4-2-6/h5-6H,1-4H2

>  <InChIKey>
KYNFOMQIXZUKRK-UHFFFAOYSA-N

>  <SMILES>
C(CSSCCO)O

$$$$
4I7K_HED_A_207
  RCSB PDB12061712583D
Coordinates from PDB:4I7K:A:207 Model:1 without hydrogens
  8  7  0  0  0  0            999 V2000
    0.7600   20.8690   -3.5370   C 0  0  0  0  0  0  0  0  0  0  0  0
    1.8860   20.4810   -2.7870   O 0  0  0  0  0  0  0  0  0  0  0  0
   -0.4910   20.6930   -2.6870   C 0  0  0  0  0  0  0  0  0  0  0  0
   -1.5720   22.1370   -2.7370   S 0  0  0  0  0  0  0  0  0  0  0  0
   -2.3240   22.3610   -0.8570   S 0  0  0  0  0  0  0  0  0  0  0  0
   -3.5490   23.6780   -1.0850   C 0  0  0  0  0  0  0  0  0  0  0  0
   -4.9180   23.2970   -0.5260   C 0  0  0  0  0  0  0  0  0  0  0  0
   -5.2250   24.1020    0.5860   O 0  0  0  0  0  0  0  0  0  0  0  0
  1  2  1  0  0  0  0
  1  3  1  0  0  0  0
  3  4  1  0  0  0  0
  4  5  1  0  0  0  0
  5  6  1  0  0  0  0
  6  7  1  0  0  0  0
  7  8  1  0  0  0  0
M  END
>  <InstanceId>
4I7K_HED_A_207

>  <ChemCompId>
HED

>  <PdbId>
4I7K

>  <ChainId>
A

>  <ResidueNumber>
207

>  <InsertionCode>


>  <Model>
1

>  <AltIds>


>  <MissingHeavyAtoms>
0

>  <ObservedFormula>
C4 O2 S2

>  <Name>
2-HYDROXYETHYL DISULFIDE

>  <SystematicName>
2-(2-hydroxyethyldisulfanyl)ethanol

>  <Synonyms>


>  <Type>
NON-POLYMER

>  <Formula>
C4 H10 O2 S2

>  <MolecularWeight>
154.251

>  <ModifiedDate>
2011-06-04

>  <Parent>


>  <OneLetterCode>


>  <SubcomponentList>


>  <AmbiguousFlag>
N

>  <InChI>
InChI=1S/C4H10O2S2/c5-1-3-7-8-4-2-6/h5-6H,1-4H2

>  <InChIKey>
KYNFOMQIXZUKRK-UHFFFAOYSA-N

>  <SMILES>
C(CSSCCO)O

$$$$
4I7L_HED_A_209
  RCSB PDB12061712583D
Coordinates from PDB:4I7L:A:209 Model:1 without hydrogens
  8  7  0  0  0  0            999 V2000
    0.8730   21.3230   -2.3830   C 0  0  0  0  0  0  0  0  0  0  0  0
    2.0280   20.9050   -2.9540   O 0  0  0  0  0  0  0  0  0  0  0  0
   -0.1140   21.7990   -3.4240   C 0  0  0  0  0  0  0  0  0  0  0  0
   -1.7640   22.1940   -2.8410   S 0  0  0  0  0  0  0  0  0  0  0  0
   -2.3600   22.9140   -1.0250   S 0  0  0  0  0  0  0  0  0  0  0  0
   -3.6060   24.1480   -1.3840   C 0  0  0  0  0  0  0  0  0  0  0  0
   -4.9610   23.6390   -0.8470   C 0  0  0  0  0  0  0  0  0  0  0  0
   -5.5620   24.4310    0.1540   O 0  0  0  0  0  0  0  0  0  0  0  0
  1  2  1  0  0  0  0
  1  3  1  0  0  0  0
  3  4  1  0  0  0  0
  4  5  1  0  0  0  0
  5  6  1  0  0  0  0
  6  7  1  0  0  0  0
  7  8  1  0  0  0  0
M  END
>  <InstanceId>
4I7L_HED_A_209

>  <ChemCompId>
HED

>  <PdbId>
4I7L

>  <ChainId>
A

>  <ResidueNumber>
209

>  <InsertionCode>


>  <Model>
1

>  <AltIds>


>  <MissingHeavyAtoms>
0

>  <ObservedFormula>
C4 O2 S2

>  <Name>
2-HYDROXYETHYL DISULFIDE

>  <SystematicName>
2-(2-hydroxyethyldisulfanyl)ethanol

>  <Synonyms>


>  <Type>
NON-POLYMER

>  <Formula>
C4 H10 O2 S2

>  <MolecularWeight>
154.251

>  <ModifiedDate>
2011-06-04

>  <Parent>


>  <OneLetterCode>


>  <SubcomponentList>


>  <AmbiguousFlag>
N

>  <InChI>
InChI=1S/C4H10O2S2/c5-1-3-7-8-4-2-6/h5-6H,1-4H2

>  <InChIKey>
KYNFOMQIXZUKRK-UHFFFAOYSA-N

>  <SMILES>
C(CSSCCO)O

$$$$
4I7M_HED_A_206
  RCSB PDB12061712583D
Coordinates from PDB:4I7M:A:206 Model:1 without hydrogens
  8  7  0  0  0  0            999 V2000
    0.8770   19.5820   -2.1520   C 0  0  0  0  0  0  0  0  0  0  0  0
    1.6580   18.8850   -3.0930   O 0  0  0  0  0  0  0  0  0  0  0  0
   -0.1270   20.4910   -2.8520   C 0  0  0  0  0  0  0  0  0  0  0  0
   -1.8400   19.9760   -2.5600   S 0  0  0  0  0  0  0  0  0  0  0  0
   -2.5720   20.9740   -0.9390   S 0  0  0  0  0  0  0  0  0  0  0  0
   -3.9050   22.0220   -1.4810   C 0  0  0  0  0  0  0  0  0  0  0  0
   -5.1790   21.4410   -0.8420   C 0  0  0  0  0  0  0  0  0  0  0  0
   -5.4820   22.1120    0.3550   O 0  0  0  0  0  0  0  0  0  0  0  0
  1  2  1  0  0  0  0
  1  3  1  0  0  0  0
  3  4  1  0  0  0  0
  4  5  1  0  0  0  0
  5  6  1  0  0  0  0
  6  7  1  0  0  0  0
  7  8  1  0  0  0  0
M  END
>  <InstanceId>
4I7M_HED_A_206

>  <ChemCompId>
HED

>  <PdbId>
4I7M

>  <ChainId>
A

>  <ResidueNumber>
206

>  <InsertionCode>


>  <Model>
1

>  <AltIds>


>  <MissingHeavyAtoms>
0

>  <ObservedFormula>
C4 O2 S2

>  <Name>
2-HYDROXYETHYL DISULFIDE

>  <SystematicName>
2-(2-hydroxyethyldisulfanyl)ethanol

>  <Synonyms>


>  <Type>
NON-POLYMER

>  <Formula>
C4 H10 O2 S2

>  <MolecularWeight>
154.251

>  <ModifiedDate>
2011-06-04

>  <Parent>


>  <OneLetterCode>


>  <SubcomponentList>


>  <AmbiguousFlag>
N

>  <InChI>
InChI=1S/C4H10O2S2/c5-1-3-7-8-4-2-6/h5-6H,1-4H2

>  <InChIKey>
KYNFOMQIXZUKRK-UHFFFAOYSA-N

>  <SMILES>
C(CSSCCO)O

$$$$
4I7N_HED_A_209
  RCSB PDB12061712583D
Coordinates from PDB:4I7N:A:209 Model:1 without hydrogens
  8  7  0  0  0  0            999 V2000
   -0.1410   19.5390   -2.9300   C 0  0  0  0  0  0  0  0  0  0  0  0
    1.2330   19.8250   -2.6890   O 0  0  0  0  0  0  0  0  0  0  0  0
   -1.1170   20.7240   -2.8530   C 0  0  0  0  0  0  0  0  0  0  0  0
   -2.2920   20.5860   -1.4770   S 0  0  0  0  0  0  0  0  0  0  0  0
   -3.2480   22.3590   -1.3210   S 0  0  0  0  0  0  0  0  0  0  0  0
   -4.8590   21.9230   -0.5830   C 0  0  0  0  0  0  0  0  0  0  0  0
   -5.5430   23.0510    0.1870   C 0  0  0  0  0  0  0  0  0  0  0  0
   -5.3700   22.9040    1.5810   O 0  0  0  0  0  0  0  0  0  0  0  0
  1  2  1  0  0  0  0
  1  3  1  0  0  0  0
  3  4  1  0  0  0  0
  4  5  1  0  0  0  0
  5  6  1  0  0  0  0
  6  7  1  0  0  0  0
  7  8  1  0  0  0  0
M  END
>  <InstanceId>
4I7N_HED_A_209

>  <ChemCompId>
HED

>  <PdbId>
4I7N

>  <ChainId>
A

>  <ResidueNumber>
209

>  <InsertionCode>


>  <Model>
1

>  <AltIds>


>  <MissingHeavyAtoms>
0

>  <ObservedFormula>
C4 O2 S2

>  <Name>
2-HYDROXYETHYL DISULFIDE

>  <SystematicName>
2-(2-hydroxyethyldisulfanyl)ethanol

>  <Synonyms>


>  <Type>
NON-POLYMER

>  <Formula>
C4 H10 O2 S2

>  <MolecularWeight>
154.251

>  <ModifiedDate>
2011-06-04

>  <Parent>


>  <OneLetterCode>


>  <SubcomponentList>


>  <AmbiguousFlag>
N

>  <InChI>
InChI=1S/C4H10O2S2/c5-1-3-7-8-4-2-6/h5-6H,1-4H2

>  <InChIKey>
KYNFOMQIXZUKRK-UHFFFAOYSA-N

>  <SMILES>
C(CSSCCO)O

$$$$
4I7O_HED_A_209
  RCSB PDB12061712583D
Coordinates from PDB:4I7O:A:209 Model:1 without hydrogens
  8  7  0  0  0  0            999 V2000
    0.9000   20.3190   -3.6140   C 0  0  0  0  0  0  0  0  0  0  0  0
    1.7330   19.2880   -3.1340   O 0  0  0  0  0  0  0  0  0  0  0  0
    0.1150   20.9090   -2.4490   C 0  0  0  0  0  0  0  0  0  0  0  0
   -1.6700   20.6640   -2.6120   S 0  0  0  0  0  0  0  0  0  0  0  0
   -2.4320   21.3670   -0.8570   S 0  0  0  0  0  0  0  0  0  0  0  0
   -3.7320   22.5270   -1.3330   C 0  0  0  0  0  0  0  0  0  0  0  0
   -5.0180   22.2840   -0.5480   C 0  0  0  0  0  0  0  0  0  0  0  0
   -5.2620   23.3810    0.3040   O 0  0  0  0  0  0  0  0  0  0  0  0
  1  2  1  0  0  0  0
  1  3  1  0  0  0  0
  3  4  1  0  0  0  0
  4  5  1  0  0  0  0
  5  6  1  0  0  0  0
  6  7  1  0  0  0  0
  7  8  1  0  0  0  0
M  END
>  <InstanceId>
4I7O_HED_A_209

>  <ChemCompId>
HED

>  <PdbId>
4I7O

>  <ChainId>
A

>  <ResidueNumber>
209

>  <InsertionCode>


>  <Model>
1

>  <AltIds>


>  <MissingHeavyAtoms>
0

>  <ObservedFormula>
C4 O2 S2

>  <Name>
2-HYDROXYETHYL DISULFIDE

>  <SystematicName>
2-(2-hydroxyethyldisulfanyl)ethanol

>  <Synonyms>


>  <Type>
NON-POLYMER

>  <Formula>
C4 H10 O2 S2

>  <MolecularWeight>
154.251

>  <ModifiedDate>
2011-06-04

>  <Parent>


>  <OneLetterCode>


>  <SubcomponentList>


>  <AmbiguousFlag>
N

>  <InChI>
InChI=1S/C4H10O2S2/c5-1-3-7-8-4-2-6/h5-6H,1-4H2

>  <InChIKey>
KYNFOMQIXZUKRK-UHFFFAOYSA-N

>  <SMILES>
C(CSSCCO)O

$$$$
4I7P_HED_A_210
  RCSB PDB12061712583D
Coordinates from PDB:4I7P:A:210 Model:1 without hydrogens
  8  7  0  0  0  0            999 V2000
   -1.1980   21.1480   -2.7880   C 0  0  0  0  0  0  0  0  0  0  0  0
   -1.0160   20.4440   -3.9960   O 0  0  0  0  0  0  0  0  0  0  0  0
   -2.4940   20.6940   -2.1270   C 0  0  0  0  0  0  0  0  0  0  0  0
   -2.9410   21.7190   -0.7030   S 0  0  0  0  0  0  0  0  0  0  0  0
   -4.9320   22.0670   -0.9430   S 0  0  0  0  0  0  0  0  0  0  0  0
   -5.4390   22.8390    0.6140   C 0  0  0  0  0  0  0  0  0  0  0  0
   -4.2510   23.2910    1.4540   C 0  0  0  0  0  0  0  0  0  0  0  0
   -4.5190   23.0460    2.8170   O 0  0  0  0  0  0  0  0  0  0  0  0
  1  2  1  0  0  0  0
  1  3  1  0  0  0  0
  3  4  1  0  0  0  0
  4  5  1  0  0  0  0
  5  6  1  0  0  0  0
  6  7  1  0  0  0  0
  7  8  1  0  0  0  0
M  END
>  <InstanceId>
4I7P_HED_A_210

>  <ChemCompId>
HED

>  <PdbId>
4I7P

>  <ChainId>
A

>  <ResidueNumber>
210

>  <InsertionCode>


>  <Model>
1

>  <AltIds>


>  <MissingHeavyAtoms>
0

>  <ObservedFormula>
C4 O2 S2

>  <Name>
2-HYDROXYETHYL DISULFIDE

>  <SystematicName>
2-(2-hydroxyethyldisulfanyl)ethanol

>  <Synonyms>


>  <Type>
NON-POLYMER

>  <Formula>
C4 H10 O2 S2

>  <MolecularWeight>
154.251

>  <ModifiedDate>
2011-06-04

>  <Parent>


>  <OneLetterCode>


>  <SubcomponentList>


>  <AmbiguousFlag>
N

>  <InChI>
InChI=1S/C4H10O2S2/c5-1-3-7-8-4-2-6/h5-6H,1-4H2

>  <InChIKey>
KYNFOMQIXZUKRK-UHFFFAOYSA-N

>  <SMILES>
C(CSSCCO)O

$$$$
4I7Q_HED_A_212
  RCSB PDB12061712583D
Coordinates from PDB:4I7Q:A:212 Model:1 without hydrogens
  8  7  0  0  0  0            999 V2000
   -5.0730   22.2070   -0.5950   C 0  0  0  0  0  0  0  0  0  0  0  0
   -5.6260   23.1740    0.2690   O 0  0  0  0  0  0  0  0  0  0  0  0
   -3.8100   22.7560   -1.2590   C 0  0  0  0  0  0  0  0  0  0  0  0
   -2.3680   21.7370   -0.8740   S 0  0  0  0  0  0  0  0  0  0  0  0
   -1.8190   20.8140   -2.6060   S 0  0  0  0  0  0  0  0  0  0  0  0
   -0.0150   20.9960   -2.6630   C 0  0  0  0  0  0  0  0  0  0  0  0
    0.6910   19.7940   -3.2790   C 0  0  0  0  0  0  0  0  0  0  0  0
    2.0120   19.7020   -2.7890   O 0  0  0  0  0  0  0  0  0  0  0  0
  1  2  1  0  0  0  0
  1  3  1  0  0  0  0
  3  4  1  0  0  0  0
  4  5  1  0  0  0  0
  5  6  1  0  0  0  0
  6  7  1  0  0  0  0
  7  8  1  0  0  0  0
M  END
>  <InstanceId>
4I7Q_HED_A_212

>  <ChemCompId>
HED

>  <PdbId>
4I7Q

>  <ChainId>
A

>  <ResidueNumber>
212

>  <InsertionCode>


>  <Model>
1

>  <AltIds>


>  <MissingHeavyAtoms>
0

>  <ObservedFormula>
C4 O2 S2

>  <Name>
2-HYDROXYETHYL DISULFIDE

>  <SystematicName>
2-(2-hydroxyethyldisulfanyl)ethanol

>  <Synonyms>


>  <Type>
NON-POLYMER

>  <Formula>
C4 H10 O2 S2

>  <MolecularWeight>
154.251

>  <ModifiedDate>
2011-06-04

>  <Parent>


>  <OneLetterCode>


>  <SubcomponentList>


>  <AmbiguousFlag>
N

>  <InChI>
InChI=1S/C4H10O2S2/c5-1-3-7-8-4-2-6/h5-6H,1-4H2

>  <InChIKey>
KYNFOMQIXZUKRK-UHFFFAOYSA-N

>  <SMILES>
C(CSSCCO)O

$$$$
4I7R_HED_A_210
  RCSB PDB12061712583D
Coordinates from PDB:4I7R:A:210 Model:1 without hydrogens
  8  7  0  0  0  0            999 V2000
   -3.1920   19.8550   -3.6560   C 0  0  0  0  0  0  0  0  0  0  0  0
   -2.7850   19.3700   -4.9870   O 0  0  0  0  0  0  0  0  0  0  0  0
   -1.9600   20.6140   -3.0200   C 0  0  0  0  0  0  0  0  0  0  0  0
   -2.1760   21.1950   -1.3150   S 0  0  0  0  0  0  0  0  0  0  0  0
   -3.4960   22.7040   -1.4700   S 0  0  0  0  0  0  0  0  0  0  0  0
   -4.9830   21.6650   -1.3710   C 0  0  0  0  0  0  0  0  0  0  0  0
   -5.6740   21.7490   -0.0250   C 0  0  0  0  0  0  0  0  0  0  0  0
   -5.4670   23.0220    0.4640   O 0  0  0  0  0  0  0  0  0  0  0  0
  1  2  1  0  0  0  0
  1  3  1  0  0  0  0
  3  4  1  0  0  0  0
  4  5  1  0  0  0  0
  5  6  1  0  0  0  0
  6  7  1  0  0  0  0
  7  8  1  0  0  0  0
M  END
>  <InstanceId>
4I7R_HED_A_210

>  <ChemCompId>
HED

>  <PdbId>
4I7R

>  <ChainId>
A

>  <ResidueNumber>
210

>  <InsertionCode>


>  <Model>
1

>  <AltIds>


>  <MissingHeavyAtoms>
0

>  <ObservedFormula>
C4 O2 S2

>  <Name>
2-HYDROXYETHYL DISULFIDE

>  <SystematicName>
2-(2-hydroxyethyldisulfanyl)ethanol

>  <Synonyms>


>  <Type>
NON-POLYMER

>  <Formula>
C4 H10 O2 S2

>  <MolecularWeight>
154.251

>  <ModifiedDate>
2011-06-04

>  <Parent>


>  <OneLetterCode>


>  <SubcomponentList>


>  <AmbiguousFlag>
N

>  <InChI>
InChI=1S/C4H10O2S2/c5-1-3-7-8-4-2-6/h5-6H,1-4H2

>  <InChIKey>
KYNFOMQIXZUKRK-UHFFFAOYSA-N

>  <SMILES>
C(CSSCCO)O

$$$$
4I7S_HED_A_208
  RCSB PDB12061712583D
Coordinates from PDB:4I7S:A:208 Model:1 without hydrogens
  8  7  0  0  0  0            999 V2000
   -3.1240   23.4210   -2.2720   C 0  0  0  0  0  0  0  0  0  0  0  0
   -1.8900   24.0060   -2.6100   O 0  0  0  0  0  0  0  0  0  0  0  0
   -3.2840   23.4150   -0.7620   C 0  0  0  0  0  0  0  0  0  0  0  0
   -5.0150   23.4990   -0.2610   S 0  0  0  0  0  0  0  0  0  0  0  0
   -5.4390   21.5910    0.2970   S 0  0  0  0  0  0  0  0  0  0  0  0
   -4.6850   21.6980    1.9370   C 0  0  0  0  0  0  0  0  0  0  0  0
   -5.7380   21.6780    3.0240   C 0  0  0  0  0  0  0  0  0  0  0  0
   -6.2690   20.3800    3.0260   O 0  0  0  0  0  0  0  0  0  0  0  0
  1  2  1  0  0  0  0
  1  3  1  0  0  0  0
  3  4  1  0  0  0  0
  4  5  1  0  0  0  0
  5  6  1  0  0  0  0
  6  7  1  0  0  0  0
  7  8  1  0  0  0  0
M  END
>  <InstanceId>
4I7S_HED_A_208

>  <ChemCompId>
HED

>  <PdbId>
4I7S

>  <ChainId>
A

>  <ResidueNumber>
208

>  <InsertionCode>


>  <Model>
1

>  <AltIds>


>  <MissingHeavyAtoms>
0

>  <ObservedFormula>
C4 O2 S2

>  <Name>
2-HYDROXYETHYL DISULFIDE

>  <SystematicName>
2-(2-hydroxyethyldisulfanyl)ethanol

>  <Synonyms>


>  <Type>
NON-POLYMER

>  <Formula>
C4 H10 O2 S2

>  <MolecularWeight>
154.251

>  <ModifiedDate>
2011-06-04

>  <Parent>


>  <OneLetterCode>


>  <SubcomponentList>


>  <AmbiguousFlag>
N

>  <InChI>
InChI=1S/C4H10O2S2/c5-1-3-7-8-4-2-6/h5-6H,1-4H2

>  <InChIKey>
KYNFOMQIXZUKRK-UHFFFAOYSA-N

>  <SMILES>
C(CSSCCO)O

$$$$
4I7T_HED_A_208
  RCSB PDB12061712583D
Coordinates from PDB:4I7T:A:208 Model:1 without hydrogens
  8  7  0  0  0  0            999 V2000
   -3.1790   20.5520   -4.2790   C 0  0  0  0  0  0  0  0  0  0  0  0
   -2.6700   19.6780   -5.2560   O 0  0  0  0  0  0  0  0  0  0  0  0
   -2.1340   21.6440   -4.0580   C 0  0  0  0  0  0  0  0  0  0  0  0
   -1.2910   21.4570   -2.4690   S 0  0  0  0  0  0  0  0  0  0  0  0
   -2.5830   21.9040   -0.9480   S 0  0  0  0  0  0  0  0  0  0  0  0
   -3.5780   23.3750   -1.1990   C 0  0  0  0  0  0  0  0  0  0  0  0
   -4.9710   22.9490   -0.6990   C 0  0  0  0  0  0  0  0  0  0  0  0
   -5.3770   23.5410    0.5290   O 0  0  0  0  0  0  0  0  0  0  0  0
  1  2  1  0  0  0  0
  1  3  1  0  0  0  0
  3  4  1  0  0  0  0
  4  5  1  0  0  0  0
  5  6  1  0  0  0  0
  6  7  1  0  0  0  0
  7  8  1  0  0  0  0
M  END
>  <InstanceId>
4I7T_HED_A_208

>  <ChemCompId>
HED

>  <PdbId>
4I7T

>  <ChainId>
A

>  <ResidueNumber>
208

>  <InsertionCode>


>  <Model>
1

>  <AltIds>


>  <MissingHeavyAtoms>
0

>  <ObservedFormula>
C4 O2 S2

>  <Name>
2-HYDROXYETHYL DISULFIDE

>  <SystematicName>
2-(2-hydroxyethyldisulfanyl)ethanol

>  <Synonyms>


>  <Type>
NON-POLYMER

>  <Formula>
C4 H10 O2 S2

>  <MolecularWeight>
154.251

>  <ModifiedDate>
2011-06-04

>  <Parent>


>  <OneLetterCode>


>  <SubcomponentList>


>  <AmbiguousFlag>
N

>  <InChI>
InChI=1S/C4H10O2S2/c5-1-3-7-8-4-2-6/h5-6H,1-4H2

>  <InChIKey>
KYNFOMQIXZUKRK-UHFFFAOYSA-N

>  <SMILES>
C(CSSCCO)O

$$$$
3DMZ_HFB_A_900
  RCSB PDB12061708203D
Coordinates from PDB:3DMZ:A:900 Model:1 without hydrogens
 12 12  0  0  0  0            999 V2000
   28.0870    7.7590    1.3470   F 0  0  0  0  0  0  0  0  0  0  0  0
   27.5130    7.5190    2.5440   C 0  0  0  0  0  0  0  0  0  0  0  0
   27.0750    6.2380    2.8740   C 0  0  0  0  0  0  0  0  0  0  0  0
   27.2230    5.2200    2.0040   F 0  0  0  0  0  0  0  0  0  0  0  0
   27.3480    8.5620    3.4500   C 0  0  0  0  0  0  0  0  0  0  0  0
   27.7550    9.8110    3.1500   F 0  0  0  0  0  0  0  0  0  0  0  0
   26.7540    8.3250    4.6760   C 0  0  0  0  0  0  0  0  0  0  0  0
   26.6100    9.3510    5.5300   F 0  0  0  0  0  0  0  0  0  0  0  0
   26.3190    7.0460    5.0060   C 0  0  0  0  0  0  0  0  0  0  0  0
   25.7420    6.8000    6.1940   F 0  0  0  0  0  0  0  0  0  0  0  0
   26.4740    6.0040    4.1050   C 0  0  0  0  0  0  0  0  0  0  0  0
   26.0480    4.7690    4.4360   F 0  0  0  0  0  0  0  0  0  0  0  0
  1  2  1  0  0  0  0
  2  3  2  0  0  0  0
  2  5  1  0  0  0  0
  3  4  1  0  0  0  0
  3 11  1  0  0  0  0
  5  6  1  0  0  0  0
  5  7  2  0  0  0  0
  7  8  1  0  0  0  0
  7  9  1  0  0  0  0
  9 10  1  0  0  0  0
  9 11  2  0  0  0  0
 11 12  1  0  0  0  0
M  END
>  <InstanceId>
3DMZ_HFB_A_900

>  <ChemCompId>
HFB

>  <PdbId>
3DMZ

>  <ChainId>
A

>  <ResidueNumber>
900

>  <InsertionCode>


>  <Model>
1

>  <AltIds>


>  <MissingHeavyAtoms>
0

>  <ObservedFormula>
C6 F6

>  <Name>
hexafluorobenzene

>  <SystematicName>
1,2,3,4,5,6-hexafluorobenzene

>  <Synonyms>


>  <Type>
NON-POLYMER

>  <Formula>
C6 F6

>  <MolecularWeight>
186.055

>  <ModifiedDate>
2011-06-04

>  <Parent>


>  <OneLetterCode>


>  <SubcomponentList>


>  <AmbiguousFlag>
N

>  <InChI>
InChI=1S/C6F6/c7-1-2(8)4(10)6(12)5(11)3(1)9

>  <InChIKey>
ZQBFAOFFOQMSGJ-UHFFFAOYSA-N

>  <SMILES>
c1(c(c(c(c(c1F)F)F)F)F)F

$$$$
184L_I4B_A_401
  RCSB PDB12061701563D
Coordinates from PDB:184L:A:401 Model:1 without hydrogens
 10 10  0  0  0  0            999 V2000
   27.3570    6.7720    3.3880   C 0  0  0  0  0  0  0  0  0  0  0  0
   27.3210    7.2930    4.6580   C 0  0  0  0  0  0  0  0  0  0  0  0
   26.5680    6.6500    5.6700   C 0  0  0  0  0  0  0  0  0  0  0  0
   25.8310    5.5260    5.3590   C 0  0  0  0  0  0  0  0  0  0  0  0
   25.8870    4.9870    4.0770   C 0  0  0  0  0  0  0  0  0  0  0  0
   26.6640    5.6070    3.0880   C 0  0  0  0  0  0  0  0  0  0  0  0
   28.1350    7.4950    2.3350   C 0  0  0  0  0  0  0  0  0  0  0  0
   27.1650    8.3380    1.5330   C 0  0  0  0  0  0  0  0  0  0  0  0
   27.8680    8.7990    0.2910   C 0  0  0  0  0  0  0  0  0  0  0  0
   26.6640    9.5080    2.3390   C 0  0  0  0  0  0  0  0  0  0  0  0
  1  2  2  0  0  0  0
  1  6  1  0  0  0  0
  1  7  1  0  0  0  0
  2  3  1  0  0  0  0
  3  4  2  0  0  0  0
  4  5  1  0  0  0  0
  5  6  2  0  0  0  0
  7  8  1  0  0  0  0
  8  9  1  0  0  0  0
  8 10  1  0  0  0  0
M  END
>  <InstanceId>
184L_I4B_A_401

>  <ChemCompId>
I4B

>  <PdbId>
184L

>  <ChainId>
A

>  <ResidueNumber>
401

>  <InsertionCode>


>  <Model>
1

>  <AltIds>


>  <MissingHeavyAtoms>
0

>  <ObservedFormula>
C10

>  <Name>
ISOBUTYLBENZENE

>  <SystematicName>
2-methylpropylbenzene

>  <Synonyms>


>  <Type>
NON-POLYMER

>  <Formula>
C10 H14

>  <MolecularWeight>
134.218

>  <ModifiedDate>
2011-06-04

>  <Parent>


>  <OneLetterCode>


>  <SubcomponentList>


>  <AmbiguousFlag>
N

>  <InChI>
InChI=1S/C10H14/c1-9(2)8-10-6-4-3-5-7-10/h3-7,9H,8H2,1-2H3

>  <InChIKey>
KXUHSQYYJYAXGZ-UHFFFAOYSA-N

>  <SMILES>
CC(C)Cc1ccccc1

$$$$
3DN3_IBF_A_900
  RCSB PDB12061708203D
Coordinates from PDB:3DN3:A:900 Model:1 without hydrogens
 12 12  0  0  0  0            999 V2000
   27.4870    5.5840    2.3870   F 0  0  0  0  0  0  0  0  0  0  0  0
   26.8950    6.1440    3.4530   C 0  0  0  0  0  0  0  0  0  0  0  0
   27.2910    7.4160    3.8360   C 0  0  0  0  0  0  0  0  0  0  0  0
   28.7760    8.4370    2.7820   I 0  0  0  0  0  0  0  0  0  0  0  0
   25.9050    5.4410    4.1440   C 0  0  0  0  0  0  0  0  0  0  0  0
   25.5600    4.2140    3.7370   F 0  0  0  0  0  0  0  0  0  0  0  0
   25.2750    5.9870    5.2470   C 0  0  0  0  0  0  0  0  0  0  0  0
   24.3210    5.3100    5.9070   F 0  0  0  0  0  0  0  0  0  0  0  0
   25.6640    7.3450    5.6890   C 0  0  0  0  0  0  0  0  0  0  0  0
   25.0900    7.9240    6.7520   F 0  0  0  0  0  0  0  0  0  0  0  0
   26.7170    8.0430    4.9210   C 0  0  0  0  0  0  0  0  0  0  0  0
   27.1190    9.2730    5.2610   F 0  0  0  0  0  0  0  0  0  0  0  0
  1  2  1  0  0  0  0
  2  3  2  0  0  0  0
  2  5  1  0  0  0  0
  3  4  1  0  0  0  0
  3 11  1  0  0  0  0
  5  6  1  0  0  0  0
  5  7  2  0  0  0  0
  7  8  1  0  0  0  0
  7  9  1  0  0  0  0
  9 10  1  0  0  0  0
  9 11  2  0  0  0  0
 11 12  1  0  0  0  0
M  END
>  <InstanceId>
3DN3_IBF_A_900

>  <ChemCompId>
IBF

>  <PdbId>
3DN3

>  <ChainId>
A

>  <ResidueNumber>
900

>  <InsertionCode>


>  <Model>
1

>  <AltIds>


>  <MissingHeavyAtoms>
0

>  <ObservedFormula>
C6 F5 I

>  <Name>
1,2,3,4,5-pentafluoro-6-iodobenzene

>  <SystematicName>
1,2,3,4,5-pentafluoro-6-iodo-benzene

>  <Synonyms>


>  <Type>
NON-POLYMER

>  <Formula>
C6 F5 I

>  <MolecularWeight>
293.961

>  <ModifiedDate>
2011-06-04

>  <Parent>


>  <OneLetterCode>


>  <SubcomponentList>


>  <AmbiguousFlag>
N

>  <InChI>
InChI=1S/C6F5I/c7-1-2(8)4(10)6(12)5(11)3(1)9

>  <InChIKey>
OPYHNLNYCRZOGY-UHFFFAOYSA-N

>  <SMILES>
c1(c(c(c(c(c1F)F)I)F)F)F

$$$$
3DN8_IBF_A_900
  RCSB PDB12061708203D
Coordinates from PDB:3DN8:A:900 Model:1 without hydrogens
 12 12  0  0  0  0            999 V2000
   27.5120    5.4680    2.4520   F 0  0  0  0  0  0  0  0  0  0  0  0
   26.9040    6.0640    3.4950   C 0  0  0  0  0  0  0  0  0  0  0  0
   27.2790    7.3540    3.8690   C 0  0  0  0  0  0  0  0  0  0  0  0
   28.7720    8.3910    2.8370   I 0  0  0  0  0  0  0  0  0  0  0  0
   25.9110    5.3640    4.1800   C 0  0  0  0  0  0  0  0  0  0  0  0
   25.5910    4.1190    3.7830   F 0  0  0  0  0  0  0  0  0  0  0  0
   25.2520    5.9290    5.2620   C 0  0  0  0  0  0  0  0  0  0  0  0
   24.2920    5.2600    5.9190   F 0  0  0  0  0  0  0  0  0  0  0  0
   25.6140    7.2990    5.6910   C 0  0  0  0  0  0  0  0  0  0  0  0
   25.0130    7.8940    6.7320   F 0  0  0  0  0  0  0  0  0  0  0  0
   26.6710    7.9990    4.9320   C 0  0  0  0  0  0  0  0  0  0  0  0
   27.0380    9.2430    5.2770   F 0  0  0  0  0  0  0  0  0  0  0  0
  1  2  1  0  0  0  0
  2  3  2  0  0  0  0
  2  5  1  0  0  0  0
  3  4  1  0  0  0  0
  3 11  1  0  0  0  0
  5  6  1  0  0  0  0
  5  7  2  0  0  0  0
  7  8  1  0  0  0  0
  7  9  1  0  0  0  0
  9 10  1  0  0  0  0
  9 11  2  0  0  0  0
 11 12  1  0  0  0  0
M  END
>  <InstanceId>
3DN8_IBF_A_900

>  <ChemCompId>
IBF

>  <PdbId>
3DN8

>  <ChainId>
A

>  <ResidueNumber>
900

>  <InsertionCode>


>  <Model>
1

>  <AltIds>


>  <MissingHeavyAtoms>
0

>  <ObservedFormula>
C6 F5 I

>  <Name>
1,2,3,4,5-pentafluoro-6-iodobenzene

>  <SystematicName>
1,2,3,4,5-pentafluoro-6-iodo-benzene

>  <Synonyms>


>  <Type>
NON-POLYMER

>  <Formula>
C6 F5 I

>  <MolecularWeight>
293.961

>  <ModifiedDate>
2011-06-04

>  <Parent>


>  <OneLetterCode>


>  <SubcomponentList>


>  <AmbiguousFlag>
N

>  <InChI>
InChI=1S/C6F5I/c7-1-2(8)4(10)6(12)5(11)3(1)9

>  <InChIKey>
OPYHNLNYCRZOGY-UHFFFAOYSA-N

>  <SMILES>
c1(c(c(c(c(c1F)F)I)F)F)F

$$$$
185L_IND_A_400
  RCSB PDB12061701563D
Coordinates from PDB:185L:A:400 Model:1 without hydrogens
  9 10  0  0  0  0            999 V2000
   28.5560    7.3580    3.1830   N 0  0  0  0  0  0  0  0  0  0  0  0
   28.3670    6.5900    2.0680   C 0  0  0  0  0  0  0  0  0  0  0  0
   27.4810    5.6010    2.3230   C 0  0  0  0  0  0  0  0  0  0  0  0
   26.1410    5.1180    4.4680   C 0  0  0  0  0  0  0  0  0  0  0  0
   26.0020    5.5250    5.7650   C 0  0  0  0  0  0  0  0  0  0  0  0
   26.7180    6.5870    6.2770   C 0  0  0  0  0  0  0  0  0  0  0  0
   27.5970    7.2920    5.5050   C 0  0  0  0  0  0  0  0  0  0  0  0
   27.7470    6.8770    4.1890   C 0  0  0  0  0  0  0  0  0  0  0  0
   27.0540    5.7730    3.6750   C 0  0  0  0  0  0  0  0  0  0  0  0
  1  2  1  0  0  0  0
  1  8  1  0  0  0  0
  2  3  2  0  0  0  0
  3  9  1  0  0  0  0
  4  5  2  0  0  0  0
  4  9  1  0  0  0  0
  5  6  1  0  0  0  0
  6  7  2  0  0  0  0
  7  8  1  0  0  0  0
  8  9  2  0  0  0  0
M  END
>  <InstanceId>
185L_IND_A_400

>  <ChemCompId>
IND

>  <PdbId>
185L

>  <ChainId>
A

>  <ResidueNumber>
400

>  <InsertionCode>


>  <Model>
1

>  <AltIds>


>  <MissingHeavyAtoms>
0

>  <ObservedFormula>
C8 N

>  <Name>
INDOLE

>  <SystematicName>
1H-indole

>  <Synonyms>


>  <Type>
NON-POLYMER

>  <Formula>
C8 H7 N

>  <MolecularWeight>
117.148

>  <ModifiedDate>
2011-06-04

>  <Parent>


>  <OneLetterCode>


>  <SubcomponentList>


>  <AmbiguousFlag>
N

>  <InChI>
InChI=1S/C8H7N/c1-2-4-8-7(3-1)5-6-9-8/h1-6,9H

>  <InChIKey>
SIKJAQJRHWYJAI-UHFFFAOYSA-N

>  <SMILES>
c1ccc2c(c1)cc[nH]2

$$$$
1LI2_IPH_A_400
  RCSB PDB12061703113D
Coordinates from PDB:1LI2:A:400 Model:1 without hydrogens
  7  7  0  0  0  0            999 V2000
   27.4870    6.6370    3.5090   C 0  0  0  0  0  0  0  0  0  0  0  0
   26.7380    5.4850    3.2810   C 0  0  0  0  0  0  0  0  0  0  0  0
   26.0000    4.9200    4.3200   C 0  0  0  0  0  0  0  0  0  0  0  0
   26.0150    5.4820    5.5880   C 0  0  0  0  0  0  0  0  0  0  0  0
   26.7910    6.6160    5.7900   C 0  0  0  0  0  0  0  0  0  0  0  0
   27.5250    7.2200    4.7650   C 0  0  0  0  0  0  0  0  0  0  0  0
   28.2030    7.1990    2.5140   O 0  0  0  0  0  0  0  0  0  0  0  0
  1  2  2  0  0  0  0
  1  6  1  0  0  0  0
  1  7  1  0  0  0  0
  2  3  1  0  0  0  0
  3  4  2  0  0  0  0
  4  5  1  0  0  0  0
  5  6  2  0  0  0  0
M  END
>  <InstanceId>
1LI2_IPH_A_400

>  <ChemCompId>
IPH

>  <PdbId>
1LI2

>  <ChainId>
A

>  <ResidueNumber>
400

>  <InsertionCode>


>  <Model>
1

>  <AltIds>


>  <MissingHeavyAtoms>
0

>  <ObservedFormula>
C6 O

>  <Name>
PHENOL

>  <SystematicName>
phenol

>  <Synonyms>


>  <Type>
NON-POLYMER

>  <Formula>
C6 H6 O

>  <MolecularWeight>
94.111

>  <ModifiedDate>
2011-06-04

>  <Parent>


>  <OneLetterCode>


>  <SubcomponentList>


>  <AmbiguousFlag>
N

>  <InChI>
InChI=1S/C6H6O/c7-6-4-2-1-3-5-6/h1-5,7H

>  <InChIKey>
ISWSIDIOOBJBQZ-UHFFFAOYSA-N

>  <SMILES>
c1ccc(cc1)O

$$$$
3GUO_IPH_A_501
  RCSB PDB12061708473D
Coordinates from PDB:3GUO:A:501 Model:1 without hydrogens
  7  7  0  0  0  0            999 V2000
    8.8380   -0.1800   -2.5940   C 0  0  0  0  0  0  0  0  0  0  0  0
    8.5110    0.9310   -1.8050   C 0  0  0  0  0  0  0  0  0  0  0  0
    9.5530    1.7670   -1.3930   C 0  0  0  0  0  0  0  0  0  0  0  0
   10.8670    1.5040   -1.7710   C 0  0  0  0  0  0  0  0  0  0  0  0
   11.1770    0.4150   -2.5890   C 0  0  0  0  0  0  0  0  0  0  0  0
   10.1560   -0.4420   -2.9900   C 0  0  0  0  0  0  0  0  0  0  0  0
    7.8480   -1.0320   -3.0220   O 0  0  0  0  0  0  0  0  0  0  0  0
  1  2  2  0  0  0  0
  1  6  1  0  0  0  0
  1  7  1  0  0  0  0
  2  3  1  0  0  0  0
  3  4  2  0  0  0  0
  4  5  1  0  0  0  0
  5  6  2  0  0  0  0
M  END
>  <InstanceId>
3GUO_IPH_A_501

>  <ChemCompId>
IPH

>  <PdbId>
3GUO

>  <ChainId>
A

>  <ResidueNumber>
501

>  <InsertionCode>


>  <Model>
1

>  <AltIds>


>  <MissingHeavyAtoms>
0

>  <ObservedFormula>
C6 O

>  <Name>
PHENOL

>  <SystematicName>
phenol

>  <Synonyms>


>  <Type>
NON-POLYMER

>  <Formula>
C6 H6 O

>  <MolecularWeight>
94.111

>  <ModifiedDate>
2011-06-04

>  <Parent>


>  <OneLetterCode>


>  <SubcomponentList>


>  <AmbiguousFlag>
N

>  <InChI>
InChI=1S/C6H6O/c7-6-4-2-1-3-5-6/h1-5,7H

>  <InChIKey>
ISWSIDIOOBJBQZ-UHFFFAOYSA-N

>  <SMILES>
c1ccc(cc1)O

$$$$
4I7L_IPH_A_202
  RCSB PDB12061712583D
Coordinates from PDB:4I7L:A:202 Model:1 without hydrogens
  7  7  0  0  0  0            999 V2000
    4.2410   10.9510    1.0770   C 0  0  0  0  0  0  0  0  0  0  0  0
    3.9880    9.7870    0.3540   C 0  0  0  0  0  0  0  0  0  0  0  0
    2.8270    9.0460    0.6190   C 0  0  0  0  0  0  0  0  0  0  0  0
    1.9590    9.4370    1.6150   C 0  0  0  0  0  0  0  0  0  0  0  0
    2.2340   10.5730    2.3460   C 0  0  0  0  0  0  0  0  0  0  0  0
    3.3650   11.3510    2.0860   C 0  0  0  0  0  0  0  0  0  0  0  0
    5.3180   11.6980    0.7770   O 0  0  0  0  0  0  0  0  0  0  0  0
  1  2  2  0  0  0  0
  1  6  1  0  0  0  0
  1  7  1  0  0  0  0
  2  3  1  0  0  0  0
  3  4  2  0  0  0  0
  4  5  1  0  0  0  0
  5  6  2  0  0  0  0
M  END
>  <InstanceId>
4I7L_IPH_A_202

>  <ChemCompId>
IPH

>  <PdbId>
4I7L

>  <ChainId>
A

>  <ResidueNumber>
202

>  <InsertionCode>


>  <Model>
1

>  <AltIds>


>  <MissingHeavyAtoms>
0

>  <ObservedFormula>
C6 O

>  <Name>
PHENOL

>  <SystematicName>
phenol

>  <Synonyms>


>  <Type>
NON-POLYMER

>  <Formula>
C6 H6 O

>  <MolecularWeight>
94.111

>  <ModifiedDate>
2011-06-04

>  <Parent>


>  <OneLetterCode>


>  <SubcomponentList>


>  <AmbiguousFlag>
N

>  <InChI>
InChI=1S/C6H6O/c7-6-4-2-1-3-5-6/h1-5,7H

>  <InChIKey>
ISWSIDIOOBJBQZ-UHFFFAOYSA-N

>  <SMILES>
c1ccc(cc1)O

$$$$
3HUK_J0Z_A_166
  RCSB PDB12061708573D
Coordinates from PDB:3HUK:A:166 Model:1 without hydrogens
 11 11  0  0  0  0            999 V2000
   34.1740  -11.3720    3.3310   C 0  0  0  0  0  0  0  0  0  0  0  0
   33.1800  -10.2110    3.2930   C 0  0  0  0  0  0  0  0  0  0  0  0
   32.7670   -9.7800    2.2160   O 0  0  0  0  0  0  0  0  0  0  0  0
   32.7610   -9.6760    4.4750   O 0  0  0  0  0  0  0  0  0  0  0  0
   32.0970   -8.4060    4.3340   C 0  0  0  0  0  0  0  0  0  0  0  0
   32.8350   -7.2310    4.2430   C 0  0  0  0  0  0  0  0  0  0  0  0
   32.7390   -6.4380    3.0990   C 0  0  0  0  0  0  0  0  0  0  0  0
   33.4750   -5.2540    3.0090   C 0  0  0  0  0  0  0  0  0  0  0  0
   34.3060   -4.8710    4.0630   C 0  0  0  0  0  0  0  0  0  0  0  0
   34.4020   -5.6650    5.2070   C 0  0  0  0  0  0  0  0  0  0  0  0
   33.6640   -6.8450    5.2980   C 0  0  0  0  0  0  0  0  0  0  0  0
  1  2  1  0  0  0  0
  2  3  2  0  0  0  0
  2  4  1  0  0  0  0
  4  5  1  0  0  0  0
  5  6  1  0  0  0  0
  6  7  2  0  0  0  0
  6 11  1  0  0  0  0
  7  8  1  0  0  0  0
  8  9  2  0  0  0  0
  9 10  1  0  0  0  0
 10 11  2  0  0  0  0
M  END
>  <InstanceId>
3HUK_J0Z_A_166

>  <ChemCompId>
J0Z

>  <PdbId>
3HUK

>  <ChainId>
A

>  <ResidueNumber>
166

>  <InsertionCode>


>  <Model>
1

>  <AltIds>


>  <MissingHeavyAtoms>
0

>  <ObservedFormula>
C9 O2

>  <Name>
benzyl acetate

>  <SystematicName>
phenylmethyl ethanoate

>  <Synonyms>


>  <Type>
NON-POLYMER

>  <Formula>
C9 H10 O2

>  <MolecularWeight>
150.174

>  <ModifiedDate>
2011-06-04

>  <Parent>


>  <OneLetterCode>


>  <SubcomponentList>


>  <AmbiguousFlag>
N

>  <InChI>
InChI=1S/C9H10O2/c1-8(10)11-7-9-5-3-2-4-6-9/h2-6H,7H2,1H3

>  <InChIKey>
QUKGYYKBILRGFE-UHFFFAOYSA-N

>  <SMILES>
CC(=O)OCc1ccccc1

$$$$
3HUQ_J1Z_A_164
  RCSB PDB12061708573D
Coordinates from PDB:3HUQ:A:164 Model:1 without hydrogens
  8  9  0  0  0  0            999 V2000
   37.9450  -27.4550  -10.6180   C 0  0  0  0  0  0  0  0  0  0  0  0
   37.5480  -23.9680  -13.6190   C 0  0  0  0  0  0  0  0  0  0  0  0
   38.4810  -27.2940  -11.8320   C 0  0  0  0  0  0  0  0  0  0  0  0
   37.0140  -24.1290  -12.4060   C 0  0  0  0  0  0  0  0  0  0  0  0
   37.0250  -26.0740  -10.3190   S 0  0  0  0  0  0  0  0  0  0  0  0
   38.4760  -25.3440  -13.9180   S 0  0  0  0  0  0  0  0  0  0  0  0
   38.1720  -26.1480  -12.4780   C 0  0  0  0  0  0  0  0  0  0  0  0
   37.3200  -25.2780  -11.7640   C 0  0  0  0  0  0  0  0  0  0  0  0
  1  3  2  0  0  0  0
  1  5  1  0  0  0  0
  2  4  2  0  0  0  0
  2  6  1  0  0  0  0
  3  7  1  0  0  0  0
  4  8  1  0  0  0  0
  5  8  1  0  0  0  0
  6  7  1  0  0  0  0
  7  8  2  0  0  0  0
M  END
>  <InstanceId>
3HUQ_J1Z_A_164

>  <ChemCompId>
J1Z

>  <PdbId>
3HUQ

>  <ChainId>
A

>  <ResidueNumber>
164

>  <InsertionCode>


>  <Model>
1

>  <AltIds>


>  <MissingHeavyAtoms>
0

>  <ObservedFormula>
C6 S2

>  <Name>
thieno[3,2-b]thiophene

>  <SystematicName>
thieno[3,2-b]thiophene

>  <Synonyms>


>  <Type>
NON-POLYMER

>  <Formula>
C6 H4 S2

>  <MolecularWeight>
140.226

>  <ModifiedDate>
2011-06-04

>  <Parent>


>  <OneLetterCode>


>  <SubcomponentList>


>  <AmbiguousFlag>
N

>  <InChI>
InChI=1S/C6H4S2/c1-3-7-6-2-4-8-5(1)6/h1-4H

>  <InChIKey>
VJYJJHQEVLEOFL-UHFFFAOYSA-N

>  <SMILES>
c1csc2c1scc2

$$$$
3HT6_JZ0_A_167
  RCSB PDB12061708563D
Coordinates from PDB:3HT6:A:167 Model:1 without hydrogens
  8  8  0  0  0  0            999 V2000
  -38.1360   27.0660  -11.6510   C 0  0  0  0  0  0  0  0  0  0  0  0
  -38.8330   27.3090  -12.8350   C 0  0  0  0  0  0  0  0  0  0  0  0
  -38.8920   26.3280  -13.8260   C 0  0  0  0  0  0  0  0  0  0  0  0
  -38.2420   25.1090  -13.6090   C 0  0  0  0  0  0  0  0  0  0  0  0
  -37.5430   24.8750  -12.4220   C 0  0  0  0  0  0  0  0  0  0  0  0
  -37.4870   25.8560  -11.4310   C 0  0  0  0  0  0  0  0  0  0  0  0
  -36.7220   25.6000  -10.1140   C 0  0  0  0  0  0  0  0  0  0  0  0
  -36.9280   23.6830  -12.2330   O 0  0  0  0  0  0  0  0  0  0  0  0
  1  2  2  0  0  0  0
  1  6  1  0  0  0  0
  2  3  1  0  0  0  0
  3  4  2  0  0  0  0
  4  5  1  0  0  0  0
  5  6  2  0  0  0  0
  5  8  1  0  0  0  0
  6  7  1  0  0  0  0
M  END
>  <InstanceId>
3HT6_JZ0_A_167

>  <ChemCompId>
JZ0

>  <PdbId>
3HT6

>  <ChainId>
A

>  <ResidueNumber>
167

>  <InsertionCode>


>  <Model>
1

>  <AltIds>


>  <MissingHeavyAtoms>
0

>  <ObservedFormula>
C7 O

>  <Name>
o-cresol

>  <SystematicName>
2-methylphenol

>  <Synonyms>
ortho-cresol,2-methylphenol

>  <Type>
NON-POLYMER

>  <Formula>
C7 H8 O

>  <MolecularWeight>
108.138

>  <ModifiedDate>
2011-06-04

>  <Parent>


>  <OneLetterCode>


>  <SubcomponentList>


>  <AmbiguousFlag>
N

>  <InChI>
InChI=1S/C7H8O/c1-6-4-2-3-5-7(6)8/h2-5,8H,1H3

>  <InChIKey>
QWVGKYWNOKOFNN-UHFFFAOYSA-N

>  <SMILES>
Cc1ccccc1O

$$$$
3HT7_JZ1_A_167
  RCSB PDB12061708563D
Coordinates from PDB:3HT7:A:167 Model:1 without hydrogens
  9  9  0  0  0  0            999 V2000
   38.6440  -27.1070  -12.4030   C 0  0  0  0  0  0  0  0  0  0  0  0
   37.9430  -26.9050  -11.2140   C 0  0  0  0  0  0  0  0  0  0  0  0
   37.1440  -25.7890  -11.0790   C 0  0  0  0  0  0  0  0  0  0  0  0
   37.0350  -24.8730  -12.1310   C 0  0  0  0  0  0  0  0  0  0  0  0
   38.5450  -26.1940  -13.4570   C 0  0  0  0  0  0  0  0  0  0  0  0
   37.7330  -25.0590  -13.3270   C 0  0  0  0  0  0  0  0  0  0  0  0
   37.6560  -24.1020  -14.5250   C 0  0  0  0  0  0  0  0  0  0  0  0
   36.3510  -24.3200  -15.3460   C 0  0  0  0  0  0  0  0  0  0  0  0
   36.2330  -23.7770  -11.9680   O 0  0  0  0  0  0  0  0  0  0  0  0
  1  2  2  0  0  0  0
  1  5  1  0  0  0  0
  2  3  1  0  0  0  0
  3  4  2  0  0  0  0
  4  6  1  0  0  0  0
  4  9  1  0  0  0  0
  5  6  2  0  0  0  0
  6  7  1  0  0  0  0
  7  8  1  0  0  0  0
M  END
>  <InstanceId>
3HT7_JZ1_A_167

>  <ChemCompId>
JZ1

>  <PdbId>
3HT7

>  <ChainId>
A

>  <ResidueNumber>
167

>  <InsertionCode>


>  <Model>
1

>  <AltIds>


>  <MissingHeavyAtoms>
0

>  <ObservedFormula>
C8 O

>  <Name>
2-ethylphenol

>  <SystematicName>
2-ethylphenol

>  <Synonyms>


>  <Type>
NON-POLYMER

>  <Formula>
C8 H10 O

>  <MolecularWeight>
122.164

>  <ModifiedDate>
2011-06-04

>  <Parent>


>  <OneLetterCode>


>  <SubcomponentList>


>  <AmbiguousFlag>
N

>  <InChI>
InChI=1S/C8H10O/c1-2-7-5-3-4-6-8(7)9/h3-6,9H,2H2,1H3

>  <InChIKey>
IXQGCWUGDFDQMF-UHFFFAOYSA-N

>  <SMILES>
CCc1ccccc1O

$$$$
3HT8_JZ2_A_167
  RCSB PDB12061708563D
Coordinates from PDB:3HT8:A:167 Model:1 without hydrogens
  9  9  0  0  0  0            999 V2000
   22.2180  -27.4310   -5.8050  Cl 0  0  0  0  0  0  0  0  0  0  0  0
   22.4710  -26.4190   -4.4610   C 0  0  0  0  0  0  0  0  0  0  0  0
   23.0640  -25.1890   -4.6760   C 0  0  0  0  0  0  0  0  0  0  0  0
   23.2670  -24.3540   -3.5990   C 0  0  0  0  0  0  0  0  0  0  0  0
   22.8770  -24.7570   -2.3180   C 0  0  0  0  0  0  0  0  0  0  0  0
   23.1070  -23.8670   -1.0830   C 0  0  0  0  0  0  0  0  0  0  0  0
   22.2830  -26.0040   -2.1240   C 0  0  0  0  0  0  0  0  0  0  0  0
   22.0660  -26.8440   -3.2090   C 0  0  0  0  0  0  0  0  0  0  0  0
   23.8650  -23.1490   -3.8420   O 0  0  0  0  0  0  0  0  0  0  0  0
  1  2  1  0  0  0  0
  2  3  2  0  0  0  0
  2  8  1  0  0  0  0
  3  4  1  0  0  0  0
  4  5  2  0  0  0  0
  4  9  1  0  0  0  0
  5  6  1  0  0  0  0
  5  7  1  0  0  0  0
  7  8  2  0  0  0  0
M  END
>  <InstanceId>
3HT8_JZ2_A_167

>  <ChemCompId>
JZ2

>  <PdbId>
3HT8

>  <ChainId>
A

>  <ResidueNumber>
167

>  <InsertionCode>


>  <Model>
1

>  <AltIds>


>  <MissingHeavyAtoms>
0

>  <ObservedFormula>
C7 O Cl

>  <Name>
5-chloro-2-methylphenol

>  <SystematicName>
5-chloro-2-methyl-phenol

>  <Synonyms>


>  <Type>
NON-POLYMER

>  <Formula>
C7 H7 Cl O

>  <MolecularWeight>
142.583

>  <ModifiedDate>
2011-06-04

>  <Parent>


>  <OneLetterCode>


>  <SubcomponentList>


>  <AmbiguousFlag>
N

>  <InChI>
InChI=1S/C7H7ClO/c1-5-2-3-6(8)4-7(5)9/h2-4,9H,1H3

>  <InChIKey>
KKFPXGXMSBBNJI-UHFFFAOYSA-N

>  <SMILES>
Cc1ccc(cc1O)Cl

$$$$
3HT9_JZ3_A_167
  RCSB PDB12061708563D
Coordinates from PDB:3HT9:A:167 Model:1 without hydrogens
  9  9  0  0  0  0            999 V2000
  -36.6730   24.3800  -15.2470   C 0  0  0  0  0  0  0  0  0  0  0  0
  -37.8040   24.2790  -14.3310   O 0  0  0  0  0  0  0  0  0  0  0  0
  -37.8510   25.2120  -13.3290   C 0  0  0  0  0  0  0  0  0  0  0  0
  -38.5350   26.4150  -13.5230   C 0  0  0  0  0  0  0  0  0  0  0  0
  -38.5850   27.3670  -12.5040   C 0  0  0  0  0  0  0  0  0  0  0  0
  -37.9680   27.1150  -11.2790   C 0  0  0  0  0  0  0  0  0  0  0  0
  -37.2990   25.9150  -11.0780   C 0  0  0  0  0  0  0  0  0  0  0  0
  -37.2420   24.9610  -12.1010   C 0  0  0  0  0  0  0  0  0  0  0  0
  -36.5830   23.7940  -11.8820   O 0  0  0  0  0  0  0  0  0  0  0  0
  1  2  1  0  0  0  0
  2  3  1  0  0  0  0
  3  4  2  0  0  0  0
  3  8  1  0  0  0  0
  4  5  1  0  0  0  0
  5  6  2  0  0  0  0
  6  7  1  0  0  0  0
  7  8  2  0  0  0  0
  8  9  1  0  0  0  0
M  END
>  <InstanceId>
3HT9_JZ3_A_167

>  <ChemCompId>
JZ3

>  <PdbId>
3HT9

>  <ChainId>
A

>  <ResidueNumber>
167

>  <InsertionCode>


>  <Model>
1

>  <AltIds>


>  <MissingHeavyAtoms>
0

>  <ObservedFormula>
C7 O2

>  <Name>
Guaiacol

>  <SystematicName>
2-methoxyphenol

>  <Synonyms>
2-methoxyphenol

>  <Type>
NON-POLYMER

>  <Formula>
C7 H8 O2

>  <MolecularWeight>
124.137

>  <ModifiedDate>
2012-10-26

>  <Parent>


>  <OneLetterCode>


>  <SubcomponentList>


>  <AmbiguousFlag>
N

>  <InChI>
InChI=1S/C7H8O2/c1-9-7-5-3-2-4-6(7)8/h2-5,8H,1H3

>  <InChIKey>
LHGVFZTZFXWLCP-UHFFFAOYSA-N

>  <SMILES>
COc1ccccc1O

$$$$
3HTB_JZ4_A_167
  RCSB PDB12061708563D
Coordinates from PDB:3HTB:A:167 Model:1 without hydrogens
 10 10  0  0  0  0            999 V2000
   24.2940  -24.1240   -0.0710   C 0  0  0  0  0  0  0  0  0  0  0  0
   21.5530  -27.2140   -4.1120   C 0  0  0  0  0  0  0  0  0  0  0  0
   22.0680  -26.7470   -5.3310   C 0  0  0  0  0  0  0  0  0  0  0  0
   22.6710  -25.5120   -5.4480   C 0  0  0  0  0  0  0  0  0  0  0  0
   22.7690  -24.7300   -4.2950   C 0  0  0  0  0  0  0  0  0  0  0  0
   21.6930  -26.4590   -2.9540   C 0  0  0  0  0  0  0  0  0  0  0  0
   22.2940  -25.1870   -3.0750   C 0  0  0  0  0  0  0  0  0  0  0  0
   22.4630  -24.4140   -1.8080   C 0  0  0  0  0  0  0  0  0  0  0  0
   23.9250  -24.7040   -1.3940   C 0  0  0  0  0  0  0  0  0  0  0  0
   23.4120  -23.5360   -4.3420   O 0  0  0  0  0  0  0  0  0  0  0  0
  1  9  1  0  0  0  0
  2  3  2  0  0  0  0
  2  6  1  0  0  0  0
  3  4  1  0  0  0  0
  4  5  2  0  0  0  0
  5  7  1  0  0  0  0
  5 10  1  0  0  0  0
  6  7  2  0  0  0  0
  7  8  1  0  0  0  0
  8  9  1  0  0  0  0
M  END
>  <InstanceId>
3HTB_JZ4_A_167

>  <ChemCompId>
JZ4

>  <PdbId>
3HTB

>  <ChainId>
A

>  <ResidueNumber>
167

>  <InsertionCode>


>  <Model>
1

>  <AltIds>


>  <MissingHeavyAtoms>
0

>  <ObservedFormula>
C9 O

>  <Name>
2-propylphenol

>  <SystematicName>
2-propylphenol

>  <Synonyms>


>  <Type>
NON-POLYMER

>  <Formula>
C9 H12 O

>  <MolecularWeight>
136.191

>  <ModifiedDate>
2011-06-04

>  <Parent>


>  <OneLetterCode>


>  <SubcomponentList>


>  <AmbiguousFlag>
N

>  <InChI>
InChI=1S/C9H12O/c1-2-5-8-6-3-4-7-9(8)10/h3-4,6-7,10H,2,5H2,1H3

>  <InChIKey>
LCHYEKKJCUJAKN-UHFFFAOYSA-N

>  <SMILES>
CCCc1ccccc1O

$$$$
3HTD_JZ5_A_166
  RCSB PDB12061708563D
Coordinates from PDB:3HTD:A:166 Model:1 without hydrogens
  8  8  0  0  0  0            999 V2000
  -31.8910    7.7320    2.1380   O 0  0  0  0  0  0  0  0  0  0  0  0
  -34.7810    5.1920    3.6220   C 0  0  0  0  0  0  0  0  0  0  0  0
  -35.2060    5.1910    4.8940   C 0  0  0  0  0  0  0  0  0  0  0  0
  -33.8870    6.1530    3.3010   C 0  0  0  0  0  0  0  0  0  0  0  0
  -31.8950    8.4090    3.3170   N 0  0  0  0  0  0  0  0  0  0  0  0
  -34.4060    6.4710    5.6540   S 0  0  0  0  0  0  0  0  0  0  0  0
  -32.6740    8.0550    4.3430   C 0  0  0  0  0  0  0  0  0  0  0  0
  -33.5480    6.9720    4.3070   C 0  0  0  0  0  0  0  0  0  0  0  0
  1  5  1  0  0  0  0
  2  3  2  0  0  0  0
  2  4  1  0  0  0  0
  3  6  1  0  0  0  0
  4  8  2  0  0  0  0
  5  7  2  0  0  0  0
  6  8  1  0  0  0  0
  7  8  1  0  0  0  0
M  END
>  <InstanceId>
3HTD_JZ5_A_166

>  <ChemCompId>
JZ5

>  <PdbId>
3HTD

>  <ChainId>
A

>  <ResidueNumber>
166

>  <InsertionCode>


>  <Model>
1

>  <AltIds>


>  <MissingHeavyAtoms>
0

>  <ObservedFormula>
C5 N O S

>  <Name>
(NZ)-N-(thiophen-2-ylmethylidene)hydroxylamine

>  <SystematicName>
(NZ)-N-(thiophen-2-ylmethylidene)hydroxylamine

>  <Synonyms>
(Z)-thiophene-2-carboxaldoxime

>  <Type>
NON-POLYMER

>  <Formula>
C5 H5 N O S

>  <MolecularWeight>
127.164

>  <ModifiedDate>
2011-06-04

>  <Parent>


>  <OneLetterCode>


>  <SubcomponentList>


>  <AmbiguousFlag>
N

>  <InChI>
InChI=1S/C5H5NOS/c7-6-4-5-2-1-3-8-5/h1-4,7H/b6-4-

>  <InChIKey>
GASLBPLHYRZLLT-XQRVVYSFSA-N

>  <SMILES>
c1cc(sc1)/C=N\O

$$$$
3HTF_JZ6_A_166
  RCSB PDB12061708563D
Coordinates from PDB:3HTF:A:166 Model:1 without hydrogens
  6  6  0  0  0  0            999 V2000
   33.7610  -10.4340    2.1450  Cl 0  0  0  0  0  0  0  0  0  0  0  0
   33.2610  -11.3070    4.6790   C 0  0  0  0  0  0  0  0  0  0  0  0
   33.7330  -12.9100    3.3190   C 0  0  0  0  0  0  0  0  0  0  0  0
   33.2290  -12.4750    5.3220   N 0  0  0  0  0  0  0  0  0  0  0  0
   33.5050  -13.4030    4.5390   N 0  0  0  0  0  0  0  0  0  0  0  0
   33.5770  -11.5920    3.4270   C 0  0  0  0  0  0  0  0  0  0  0  0
  1  6  1  0  0  0  0
  2  4  1  0  0  0  0
  2  6  2  0  0  0  0
  3  5  2  0  0  0  0
  3  6  1  0  0  0  0
  4  5  1  0  0  0  0
M  END
>  <InstanceId>
3HTF_JZ6_A_166

>  <ChemCompId>
JZ6

>  <PdbId>
3HTF

>  <ChainId>
A

>  <ResidueNumber>
166

>  <InsertionCode>


>  <Model>
1

>  <AltIds>


>  <MissingHeavyAtoms>
0

>  <ObservedFormula>
C3 N2 Cl

>  <Name>
4-chloro-1H-pyrazole

>  <SystematicName>
4-chloro-1H-pyrazole

>  <Synonyms>


>  <Type>
NON-POLYMER

>  <Formula>
C3 H3 Cl N2

>  <MolecularWeight>
102.522

>  <ModifiedDate>
2011-06-04

>  <Parent>


>  <OneLetterCode>


>  <SubcomponentList>


>  <AmbiguousFlag>
N

>  <InChI>
InChI=1S/C3H3ClN2/c4-3-1-5-6-2-3/h1-2H,(H,5,6)

>  <InChIKey>
BADSZRMNXWLUKO-UHFFFAOYSA-N

>  <SMILES>
c1c(cn[nH]1)Cl

$$$$
3HTG_JZ7_A_167
  RCSB PDB12061708563D
Coordinates from PDB:3HTG:A:167 Model:1 without hydrogens
  9  9  0  0  0  0            999 V2000
   32.2540  -12.1200    5.0560   C 0  0  0  0  0  0  0  0  0  0  0  0
   32.0470   -8.0740    1.6620   C 0  0  0  0  0  0  0  0  0  0  0  0
   32.4350   -9.2710    1.0650   C 0  0  0  0  0  0  0  0  0  0  0  0
   33.5180  -11.2530    4.9860   C 0  0  0  0  0  0  0  0  0  0  0  0
   31.9850   -7.9720    3.0530   C 0  0  0  0  0  0  0  0  0  0  0  0
   33.0990   -8.7660    3.7650   C 0  0  0  0  0  0  0  0  0  0  0  0
   32.7540  -10.3410    1.8510   O 0  0  0  0  0  0  0  0  0  0  0  0
   34.0510  -11.1530    3.6450   O 0  0  0  0  0  0  0  0  0  0  0  0
   33.6680   -9.9500    2.9090   C 0  0  0  0  0  0  0  0  0  0  0  0
  1  4  1  0  0  0  0
  2  3  2  0  0  0  0
  2  5  1  0  0  0  0
  3  7  1  0  0  0  0
  4  8  1  0  0  0  0
  5  6  1  0  0  0  0
  6  9  1  0  0  0  0
  7  9  1  0  0  0  0
  8  9  1  0  0  0  0
M  END
>  <InstanceId>
3HTG_JZ7_A_167

>  <ChemCompId>
JZ7

>  <PdbId>
3HTG

>  <ChainId>
A

>  <ResidueNumber>
167

>  <InsertionCode>


>  <Model>
1

>  <AltIds>


>  <MissingHeavyAtoms>
0

>  <ObservedFormula>
C7 O2

>  <Name>
(2S)-2-ethoxy-3,4-dihydro-2H-pyran

>  <SystematicName>
(2S)-2-ethoxy-3,4-dihydro-2H-pyran

>  <Synonyms>


>  <Type>
NON-POLYMER

>  <Formula>
C7 H12 O2

>  <MolecularWeight>
128.169

>  <ModifiedDate>
2011-06-04

>  <Parent>


>  <OneLetterCode>


>  <SubcomponentList>


>  <AmbiguousFlag>
N

>  <InChI>
InChI=1S/C7H12O2/c1-2-8-7-5-3-4-6-9-7/h4,6-7H,2-3,5H2,1H3/t7-/m0/s1

>  <InChIKey>
VZJFPIXCMVSTID-ZETCQYMHSA-N

>  <SMILES>
CCO[C@@H]1CCC=CO1

$$$$
3HUA_JZ9_A_165
  RCSB PDB12061708573D
Coordinates from PDB:3HUA:A:165 Model:1 without hydrogens
  9 10  0  0  0  0            999 V2000
  -21.8400   24.9490   -1.8880   C 0  0  0  0  0  0  0  0  0  0  0  0
  -21.5610   26.1950   -2.2750   C 0  0  0  0  0  0  0  0  0  0  0  0
  -22.3110   27.1910   -5.8280   C 0  0  0  0  0  0  0  0  0  0  0  0
  -23.4830   26.2050   -6.0100   C 0  0  0  0  0  0  0  0  0  0  0  0
  -22.0730   27.6110   -4.3670   C 0  0  0  0  0  0  0  0  0  0  0  0
  -23.4610   24.9450   -5.1260   C 0  0  0  0  0  0  0  0  0  0  0  0
  -22.5460   24.3230   -2.8300   N 0  0  0  0  0  0  0  0  0  0  0  0
  -22.1010   26.3710   -3.4750   C 0  0  0  0  0  0  0  0  0  0  0  0
  -22.7230   25.1870   -3.8190   C 0  0  0  0  0  0  0  0  0  0  0  0
  1  2  2  0  0  0  0
  1  7  1  0  0  0  0
  2  8  1  0  0  0  0
  3  4  1  0  0  0  0
  3  5  1  0  0  0  0
  4  6  1  0  0  0  0
  5  8  1  0  0  0  0
  6  9  1  0  0  0  0
  7  9  1  0  0  0  0
  8  9  2  0  0  0  0
M  END
>  <InstanceId>
3HUA_JZ9_A_165

>  <ChemCompId>
JZ9

>  <PdbId>
3HUA

>  <ChainId>
A

>  <ResidueNumber>
165

>  <InsertionCode>


>  <Model>
1

>  <AltIds>


>  <MissingHeavyAtoms>
0

>  <ObservedFormula>
C8 N

>  <Name>
4,5,6,7-tetrahydro-1H-indole

>  <SystematicName>
4,5,6,7-tetrahydro-1H-indole

>  <Synonyms>


>  <Type>
NON-POLYMER

>  <Formula>
C8 H11 N

>  <MolecularWeight>
121.18

>  <ModifiedDate>
2011-06-04

>  <Parent>


>  <OneLetterCode>


>  <SubcomponentList>


>  <AmbiguousFlag>
N

>  <InChI>
InChI=1S/C8H11N/c1-2-4-8-7(3-1)5-6-9-8/h5-6,9H,1-4H2

>  <InChIKey>
KQBVVLOYXDVATK-UHFFFAOYSA-N

>  <SMILES>
c1c[nH]c2c1CCCC2

$$$$
3DKE_K_X_601
  RCSB PDB12061708203D
Coordinates from PDB:3DKE:X:601 Model:1 without hydrogens
  1  0  0  0  0  0            999 V2000
   42.1250   16.9750   11.6240   K 0  3  0  0  0  0  0  0  0  0  0  0
M  CHG  1   1   1
M  END
>  <InstanceId>
3DKE_K_X_601

>  <ChemCompId>
K

>  <PdbId>
3DKE

>  <ChainId>
X

>  <ResidueNumber>
601

>  <InsertionCode>


>  <Model>
1

>  <AltIds>


>  <MissingHeavyAtoms>
0

>  <ObservedFormula>
K

>  <Name>
POTASSIUM ION

>  <SystematicName>
potassium(+1) cation

>  <Synonyms>


>  <Type>
NON-POLYMER

>  <Formula>
K

>  <MolecularWeight>
39.098

>  <ModifiedDate>
2011-06-04

>  <Parent>


>  <OneLetterCode>


>  <SubcomponentList>


>  <AmbiguousFlag>
N

>  <InChI>
InChI=1S/K/q+1

>  <InChIKey>
NPYPAHLBTDXSSS-UHFFFAOYSA-N

>  <SMILES>
[K+]

$$$$
1C6D_KR_A_500
  RCSB PDB12061702093D
Coordinates from PDB:1C6D:A:500 Model:1 without hydrogens
  1  0  0  0  0  0            999 V2000
   25.9620    5.1980    4.5350  Kr 0  0  0  0  0  0  0  0  0  0  0  0
M  END
>  <InstanceId>
1C6D_KR_A_500

>  <ChemCompId>
KR

>  <PdbId>
1C6D

>  <ChainId>
A

>  <ResidueNumber>
500

>  <InsertionCode>


>  <Model>
1

>  <AltIds>


>  <MissingHeavyAtoms>
0

>  <ObservedFormula>
Kr

>  <Name>
KRYPTON

>  <SystematicName>
krypton

>  <Synonyms>


>  <Type>
NON-POLYMER

>  <Formula>
Kr

>  <MolecularWeight>
83.798

>  <ModifiedDate>
2011-06-04

>  <Parent>


>  <OneLetterCode>


>  <SubcomponentList>


>  <AmbiguousFlag>
N

>  <InChI>
InChI=1S/Kr

>  <InChIKey>
DNNSSWSSYDEUBZ-UHFFFAOYSA-N

>  <SMILES>
[Kr]

$$$$
1C6G_KR_A_500
  RCSB PDB12061702093D
Coordinates from PDB:1C6G:A:500 Model:1 without hydrogens
  1  0  0  0  0  0            999 V2000
   25.9660    5.2390    4.6190  Kr 0  0  0  0  0  0  0  0  0  0  0  0
M  END
>  <InstanceId>
1C6G_KR_A_500

>  <ChemCompId>
KR

>  <PdbId>
1C6G

>  <ChainId>
A

>  <ResidueNumber>
500

>  <InsertionCode>


>  <Model>
1

>  <AltIds>


>  <MissingHeavyAtoms>
0

>  <ObservedFormula>
Kr

>  <Name>
KRYPTON

>  <SystematicName>
krypton

>  <Synonyms>


>  <Type>
NON-POLYMER

>  <Formula>
Kr

>  <MolecularWeight>
83.798

>  <ModifiedDate>
2011-06-04

>  <Parent>


>  <OneLetterCode>


>  <SubcomponentList>


>  <AmbiguousFlag>
N

>  <InChI>
InChI=1S/Kr

>  <InChIKey>
DNNSSWSSYDEUBZ-UHFFFAOYSA-N

>  <SMILES>
[Kr]

$$$$
1C6J_KR_A_500
  RCSB PDB12061702093D
Coordinates from PDB:1C6J:A:500 Model:1 without hydrogens
  1  0  0  0  0  0            999 V2000
   25.9010    5.2010    4.6030  Kr 0  0  0  0  0  0  0  0  0  0  0  0
M  END
>  <InstanceId>
1C6J_KR_A_500

>  <ChemCompId>
KR

>  <PdbId>
1C6J

>  <ChainId>
A

>  <ResidueNumber>
500

>  <InsertionCode>


>  <Model>
1

>  <AltIds>


>  <MissingHeavyAtoms>
0

>  <ObservedFormula>
Kr

>  <Name>
KRYPTON

>  <SystematicName>
krypton

>  <Synonyms>


>  <Type>
NON-POLYMER

>  <Formula>
Kr

>  <MolecularWeight>
83.798

>  <ModifiedDate>
2011-06-04

>  <Parent>


>  <OneLetterCode>


>  <SubcomponentList>


>  <AmbiguousFlag>
N

>  <InChI>
InChI=1S/Kr

>  <InChIKey>
DNNSSWSSYDEUBZ-UHFFFAOYSA-N

>  <SMILES>
[Kr]

$$$$
1C6M_KR_A_500
  RCSB PDB12061702093D
Coordinates from PDB:1C6M:A:500 Model:1 without hydrogens
  1  0  0  0  0  0            999 V2000
   25.9450    5.2980    4.4550  Kr 0  0  0  0  0  0  0  0  0  0  0  0
M  END
>  <InstanceId>
1C6M_KR_A_500

>  <ChemCompId>
KR

>  <PdbId>
1C6M

>  <ChainId>
A

>  <ResidueNumber>
500

>  <InsertionCode>


>  <Model>
1

>  <AltIds>


>  <MissingHeavyAtoms>
0

>  <ObservedFormula>
Kr

>  <Name>
KRYPTON

>  <SystematicName>
krypton

>  <Synonyms>


>  <Type>
NON-POLYMER

>  <Formula>
Kr

>  <MolecularWeight>
83.798

>  <ModifiedDate>
2011-06-04

>  <Parent>


>  <OneLetterCode>


>  <SubcomponentList>


>  <AmbiguousFlag>
N

>  <InChI>
InChI=1S/Kr

>  <InChIKey>
DNNSSWSSYDEUBZ-UHFFFAOYSA-N

>  <SMILES>
[Kr]

$$$$
1OV7_LYL_A_407
  RCSB PDB12061703363D
Coordinates from PDB:1OV7:A:407 Model:1 without hydrogens
 11 11  0  0  0  0            999 V2000
   27.2790    6.5610    3.2440   C 0  0  0  0  0  0  0  0  0  0  0  0
   27.4330    7.2140    4.4630   C 0  0  0  0  0  0  0  0  0  0  0  0
   26.4960    5.4110    3.1430   C 0  0  0  0  0  0  0  0  0  0  0  0
   28.0190    7.0940    2.0410   C 0  0  0  0  0  0  0  0  0  0  0  0
   26.7960    6.6990    5.6010   C 0  0  0  0  0  0  0  0  0  0  0  0
   26.8670    7.3130    6.9770   C 0  0  0  0  0  0  0  0  0  0  0  0
   28.2380    8.3330    4.4440   O 0  0  0  0  0  0  0  0  0  0  0  0
   25.8630    4.9010    4.2810   C 0  0  0  0  0  0  0  0  0  0  0  0
   26.0000    5.5620    5.4990   C 0  0  0  0  0  0  0  0  0  0  0  0
   27.5080    8.4680    1.6670   C 0  0  0  0  0  0  0  0  0  0  0  0
   28.0950    9.1450    0.6630   C 0  0  0  0  0  0  0  0  0  0  0  0
  1  2  2  0  0  0  0
  1  3  1  0  0  0  0
  1  4  1  0  0  0  0
  2  5  1  0  0  0  0
  2  7  1  0  0  0  0
  3  8  2  0  0  0  0
  4 10  1  0  0  0  0
  5  6  1  0  0  0  0
  5  9  2  0  0  0  0
  8  9  1  0  0  0  0
 10 11  2  0  0  0  0
M  END
>  <InstanceId>
1OV7_LYL_A_407

>  <ChemCompId>
LYL

>  <PdbId>
1OV7

>  <ChainId>
A

>  <ResidueNumber>
407

>  <InsertionCode>


>  <Model>
1

>  <AltIds>


>  <MissingHeavyAtoms>
0

>  <ObservedFormula>
C10 O

>  <Name>
2-ALLYL-6-METHYL-PHENOL

>  <SystematicName>
2-methyl-6-prop-2-enyl-phenol

>  <Synonyms>


>  <Type>
NON-POLYMER

>  <Formula>
C10 H12 O

>  <MolecularWeight>
148.202

>  <ModifiedDate>
2011-06-04

>  <Parent>


>  <OneLetterCode>


>  <SubcomponentList>


>  <AmbiguousFlag>
N

>  <InChI>
InChI=1S/C10H12O/c1-3-5-9-7-4-6-8(2)10(9)11/h3-4,6-7,11H,1,5H2,2H3

>  <InChIKey>
WREVCRYZAWNLRZ-UHFFFAOYSA-N

>  <SMILES>
Cc1cccc(c1O)CC=C

$$$$
3GUK_MBN_A_501
  RCSB PDB12061708473D
Coordinates from PDB:3GUK:A:501 Model:1 without hydrogens
  7  7  0  0  0  0            999 V2000
    7.5740   -0.9260   -2.8360   C 0  0  0  0  0  0  0  0  0  0  0  0
    8.6660    0.0350   -2.4570   C 0  0  0  0  0  0  0  0  0  0  0  0
    8.4100    1.0630   -1.5590   C 0  0  0  0  0  0  0  0  0  0  0  0
    9.4500    1.9230   -1.2370   C 0  0  0  0  0  0  0  0  0  0  0  0
   10.7270    1.7680   -1.8030   C 0  0  0  0  0  0  0  0  0  0  0  0
   10.9740    0.7430   -2.7020   C 0  0  0  0  0  0  0  0  0  0  0  0
    9.9330   -0.1250   -3.0160   C 0  0  0  0  0  0  0  0  0  0  0  0
  1  2  1  0  0  0  0
  2  3  2  0  0  0  0
  2  7  1  0  0  0  0
  3  4  1  0  0  0  0
  4  5  2  0  0  0  0
  5  6  1  0  0  0  0
  6  7  2  0  0  0  0
M  END
>  <InstanceId>
3GUK_MBN_A_501

>  <ChemCompId>
MBN

>  <PdbId>
3GUK

>  <ChainId>
A

>  <ResidueNumber>
501

>  <InsertionCode>


>  <Model>
1

>  <AltIds>


>  <MissingHeavyAtoms>
0

>  <ObservedFormula>
C7

>  <Name>
TOLUENE

>  <SystematicName>
methylbenzene

>  <Synonyms>


>  <Type>
NON-POLYMER

>  <Formula>
C7 H8

>  <MolecularWeight>
92.138

>  <ModifiedDate>
2011-06-04

>  <Parent>


>  <OneLetterCode>


>  <SubcomponentList>


>  <AmbiguousFlag>
N

>  <InChI>
InChI=1S/C7H8/c1-7-5-3-2-4-6-7/h2-6H,1H3

>  <InChIKey>
YXFVVABEGXRONW-UHFFFAOYSA-N

>  <SMILES>
Cc1ccccc1

$$$$
4I7K_MBN_A_202
  RCSB PDB12061712583D
Coordinates from PDB:4I7K:A:202 Model:1 without hydrogens
  7  7  0  0  0  0            999 V2000
    5.3240   11.1740    0.4770   C 0  0  0  0  0  0  0  0  0  0  0  0
    4.1140   10.4210    0.9760   C 0  0  0  0  0  0  0  0  0  0  0  0
    3.6980    9.2710    0.3200   C 0  0  0  0  0  0  0  0  0  0  0  0
    2.5810    8.5880    0.7720   C 0  0  0  0  0  0  0  0  0  0  0  0
    1.8610    9.0510    1.8670   C 0  0  0  0  0  0  0  0  0  0  0  0
    2.2770   10.2010    2.5280   C 0  0  0  0  0  0  0  0  0  0  0  0
    3.3990   10.8980    2.0850   C 0  0  0  0  0  0  0  0  0  0  0  0
  1  2  1  0  0  0  0
  2  3  2  0  0  0  0
  2  7  1  0  0  0  0
  3  4  1  0  0  0  0
  4  5  2  0  0  0  0
  5  6  1  0  0  0  0
  6  7  2  0  0  0  0
M  END
>  <InstanceId>
4I7K_MBN_A_202

>  <ChemCompId>
MBN

>  <PdbId>
4I7K

>  <ChainId>
A

>  <ResidueNumber>
202

>  <InsertionCode>


>  <Model>
1

>  <AltIds>


>  <MissingHeavyAtoms>
0

>  <ObservedFormula>
C7

>  <Name>
TOLUENE

>  <SystematicName>
methylbenzene

>  <Synonyms>


>  <Type>
NON-POLYMER

>  <Formula>
C7 H8

>  <MolecularWeight>
92.138

>  <ModifiedDate>
2011-06-04

>  <Parent>


>  <OneLetterCode>


>  <SubcomponentList>


>  <AmbiguousFlag>
N

>  <InChI>
InChI=1S/C7H8/c1-7-5-3-2-4-6-7/h2-6H,1H3

>  <InChIKey>
YXFVVABEGXRONW-UHFFFAOYSA-N

>  <SMILES>
Cc1ccccc1

$$$$
4W53_MBN_A_200
  RCSB PDB12061715543D
Coordinates from PDB:4W53:A:200 Model:1 without hydrogens
  7  7  0  0  0  0            999 V2000
  -32.3550    7.2630    2.2070   C 0  0  0  0  0  0  0  0  0  0  0  0
  -33.1810    6.6060    3.3010   C 0  0  0  0  0  0  0  0  0  0  0  0
  -33.2380    7.1600    4.5650   C 0  0  0  0  0  0  0  0  0  0  0  0
  -33.9920    6.5710    5.5700   C 0  0  0  0  0  0  0  0  0  0  0  0
  -34.7110    5.4170    5.3320   C 0  0  0  0  0  0  0  0  0  0  0  0
  -34.6380    4.8780    4.0600   C 0  0  0  0  0  0  0  0  0  0  0  0
  -33.8940    5.4470    3.0480   C 0  0  0  0  0  0  0  0  0  0  0  0
  1  2  1  0  0  0  0
  2  3  2  0  0  0  0
  2  7  1  0  0  0  0
  3  4  1  0  0  0  0
  4  5  2  0  0  0  0
  5  6  1  0  0  0  0
  6  7  2  0  0  0  0
M  END
>  <InstanceId>
4W53_MBN_A_200

>  <ChemCompId>
MBN

>  <PdbId>
4W53

>  <ChainId>
A

>  <ResidueNumber>
200

>  <InsertionCode>


>  <Model>
1

>  <AltIds>


>  <MissingHeavyAtoms>
0

>  <ObservedFormula>
C7

>  <Name>
TOLUENE

>  <SystematicName>
methylbenzene

>  <Synonyms>


>  <Type>
NON-POLYMER

>  <Formula>
C7 H8

>  <MolecularWeight>
92.138

>  <ModifiedDate>
2011-06-04

>  <Parent>


>  <OneLetterCode>


>  <SubcomponentList>


>  <AmbiguousFlag>
N

>  <InChI>
InChI=1S/C7H8/c1-7-5-3-2-4-6-7/h2-6H,1H3

>  <InChIKey>
YXFVVABEGXRONW-UHFFFAOYSA-N

>  <SMILES>
Cc1ccccc1

$$$$
3GUP_MG_A_166
  RCSB PDB12061708473D
Coordinates from PDB:3GUP:A:166 Model:1 without hydrogens
  1  0  0  0  0  0            999 V2000
  -14.6180   -9.8560   57.5730  Mg 0  2  0  0  0  0  0  0  0  0  0  0
M  CHG  1   1   2
M  END
>  <InstanceId>
3GUP_MG_A_166

>  <ChemCompId>
MG

>  <PdbId>
3GUP

>  <ChainId>
A

>  <ResidueNumber>
166

>  <InsertionCode>


>  <Model>
1

>  <AltIds>


>  <MissingHeavyAtoms>
0

>  <ObservedFormula>
Mg

>  <Name>
MAGNESIUM ION

>  <SystematicName>
magnesium(+2) cation

>  <Synonyms>


>  <Type>
NON-POLYMER

>  <Formula>
Mg

>  <MolecularWeight>
24.305

>  <ModifiedDate>
2011-06-04

>  <Parent>


>  <OneLetterCode>


>  <SubcomponentList>


>  <AmbiguousFlag>
N

>  <InChI>
InChI=1S/Mg/q+2

>  <InChIKey>
JLVVSXFLKOJNIY-UHFFFAOYSA-N

>  <SMILES>
[Mg+2]

$$$$
2OU0_MR3_X_303
  RCSB PDB12061706333D
Coordinates from PDB:2OU0:X:303 Model:1 without hydrogens
  6  6  0  0  0  0            999 V2000
  -22.4780   24.2370   -2.8640   C 0  0  0  0  0  0  0  0  0  0  0  0
  -22.3340   25.4060   -3.7610   N 0  0  0  0  0  0  0  0  0  0  0  0
  -22.8150   25.4790   -4.9980   C 0  0  0  0  0  0  0  0  0  0  0  0
  -22.4780   26.6790   -5.4730   C 0  0  0  0  0  0  0  0  0  0  0  0
  -21.7930   27.3200   -4.5220   C 0  0  0  0  0  0  0  0  0  0  0  0
  -21.6950   26.5310   -3.4480   C 0  0  0  0  0  0  0  0  0  0  0  0
  1  2  1  0  0  0  0
  2  3  1  0  0  0  0
  2  6  1  0  0  0  0
  3  4  2  0  0  0  0
  4  5  1  0  0  0  0
  5  6  2  0  0  0  0
M  END
>  <InstanceId>
2OU0_MR3_X_303

>  <ChemCompId>
MR3

>  <PdbId>
2OU0

>  <ChainId>
X

>  <ResidueNumber>
303

>  <InsertionCode>


>  <Model>
1

>  <AltIds>


>  <MissingHeavyAtoms>
0

>  <ObservedFormula>
C5 N

>  <Name>
1-METHYL-1H-PYRROLE

>  <SystematicName>
1-methylpyrrole

>  <Synonyms>


>  <Type>
NON-POLYMER

>  <Formula>
C5 H7 N

>  <MolecularWeight>
81.116

>  <ModifiedDate>
2011-06-04

>  <Parent>


>  <OneLetterCode>


>  <SubcomponentList>


>  <AmbiguousFlag>


>  <InChI>
InChI=1S/C5H7N/c1-6-4-2-3-5-6/h2-5H,1H3

>  <InChIKey>
OXHNLMTVIGZXSG-UHFFFAOYSA-N

>  <SMILES>
Cn1cccc1

$$$$
186L_N4B_A_400
  RCSB PDB12061701563D
Coordinates from PDB:186L:A:400 Model:1 without hydrogens
 10 10  0  0  0  0            999 V2000
   27.5330    7.0610    3.9520   C 0  0  0  0  0  0  0  0  0  0  0  0
   26.9940    7.0690    5.2570   C 0  0  0  0  0  0  0  0  0  0  0  0
   26.1900    6.0370    5.6740   C 0  0  0  0  0  0  0  0  0  0  0  0
   25.8970    5.0000    4.8010   C 0  0  0  0  0  0  0  0  0  0  0  0
   26.4420    4.9870    3.5500   C 0  0  0  0  0  0  0  0  0  0  0  0
   27.2550    6.0160    3.1200   C 0  0  0  0  0  0  0  0  0  0  0  0
   28.3470    8.2100    3.4230   C 0  0  0  0  0  0  0  0  0  0  0  0
   27.4170    9.3750    3.0960   C 0  0  0  0  0  0  0  0  0  0  0  0
   26.6450    9.1420    1.8090   C 0  0  0  0  0  0  0  0  0  0  0  0
   27.5330    9.0850    0.6020   C 0  0  0  0  0  0  0  0  0  0  0  0
  1  2  2  0  0  0  0
  1  6  1  0  0  0  0
  1  7  1  0  0  0  0
  2  3  1  0  0  0  0
  3  4  2  0  0  0  0
  4  5  1  0  0  0  0
  5  6  2  0  0  0  0
  7  8  1  0  0  0  0
  8  9  1  0  0  0  0
  9 10  1  0  0  0  0
M  END
>  <InstanceId>
186L_N4B_A_400

>  <ChemCompId>
N4B

>  <PdbId>
186L

>  <ChainId>
A

>  <ResidueNumber>
400

>  <InsertionCode>


>  <Model>
1

>  <AltIds>


>  <MissingHeavyAtoms>
0

>  <ObservedFormula>
C10

>  <Name>
N-BUTYLBENZENE

>  <SystematicName>
butylbenzene

>  <Synonyms>


>  <Type>
NON-POLYMER

>  <Formula>
C10 H14

>  <MolecularWeight>
134.218

>  <ModifiedDate>
2011-06-04

>  <Parent>


>  <OneLetterCode>


>  <SubcomponentList>


>  <AmbiguousFlag>
N

>  <InChI>
InChI=1S/C10H14/c1-2-3-7-10-8-5-4-6-9-10/h4-6,8-9H,2-3,7H2,1H3

>  <InChIKey>
OCKPCBLVNKHBMX-UHFFFAOYSA-N

>  <SMILES>
CCCCc1ccccc1

$$$$
4W57_N4B_A_200
  RCSB PDB12061715543D
Coordinates from PDB:4W57:A:200 Model:1 without hydrogens
 10 10  0  0  0  0            999 V2000
  -40.5790   19.9630   12.3790   C 0  0  0  0  0  0  0  0  0  0  0  0
  -41.1410   19.4740   11.2060   C 0  0  0  0  0  0  0  0  0  0  0  0
  -42.5230   19.4100   11.0690   C 0  0  0  0  0  0  0  0  0  0  0  0
  -43.3490   19.8390   12.0970   C 0  0  0  0  0  0  0  0  0  0  0  0
  -42.7880   20.3280   13.2720   C 0  0  0  0  0  0  0  0  0  0  0  0
  -41.4010   20.3940   13.4090   C 0  0  0  0  0  0  0  0  0  0  0  0
  -39.0570   20.0330   12.5260   C 0  0  0  0  0  0  0  0  0  0  0  0
  -38.4730   18.7000   12.9950   C 0  0  0  0  0  0  0  0  0  0  0  0
  -39.0030   18.2620   14.3630   C 0  0  0  0  0  0  0  0  0  0  0  0
  -38.6610   19.2680   15.4690   C 0  0  0  0  0  0  0  0  0  0  0  0
  1  2  2  0  0  0  0
  1  6  1  0  0  0  0
  1  7  1  0  0  0  0
  2  3  1  0  0  0  0
  3  4  2  0  0  0  0
  4  5  1  0  0  0  0
  5  6  2  0  0  0  0
  7  8  1  0  0  0  0
  8  9  1  0  0  0  0
  9 10  1  0  0  0  0
M  END
>  <InstanceId>
4W57_N4B_A_200

>  <ChemCompId>
N4B

>  <PdbId>
4W57

>  <ChainId>
A

>  <ResidueNumber>
200

>  <InsertionCode>


>  <Model>
1

>  <AltIds>


>  <MissingHeavyAtoms>
0

>  <ObservedFormula>
C10

>  <Name>
N-BUTYLBENZENE

>  <SystematicName>
butylbenzene

>  <Synonyms>


>  <Type>
NON-POLYMER

>  <Formula>
C10 H14

>  <MolecularWeight>
134.218

>  <ModifiedDate>
2011-06-04

>  <Parent>


>  <OneLetterCode>


>  <SubcomponentList>


>  <AmbiguousFlag>
N

>  <InChI>
InChI=1S/C10H14/c1-2-3-7-10-8-5-4-6-9-10/h4-6,8-9H,2-3,7H2,1H3

>  <InChIKey>
OCKPCBLVNKHBMX-UHFFFAOYSA-N

>  <SMILES>
CCCCc1ccccc1

$$$$
3HH3_NA_A_168
  RCSB PDB12061708533D
Coordinates from PDB:3HH3:A:168 Model:1 without hydrogens
  1  0  0  0  0  0            999 V2000
   42.1690   17.0170   11.5460  Na 0  3  0  0  0  0  0  0  0  0  0  0
M  CHG  1   1   1
M  END
>  <InstanceId>
3HH3_NA_A_168

>  <ChemCompId>
NA

>  <PdbId>
3HH3

>  <ChainId>
A

>  <ResidueNumber>
168

>  <InsertionCode>


>  <Model>
1

>  <AltIds>


>  <MissingHeavyAtoms>
0

>  <ObservedFormula>
Na

>  <Name>
SODIUM ION

>  <SystematicName>
sodium(+1) cation

>  <Synonyms>


>  <Type>
NON-POLYMER

>  <Formula>
Na

>  <MolecularWeight>
22.99

>  <ModifiedDate>
2011-06-04

>  <Parent>


>  <OneLetterCode>


>  <SubcomponentList>


>  <AmbiguousFlag>
N

>  <InChI>
InChI=1S/Na/q+1

>  <InChIKey>
FKNQFGJONOIPTF-UHFFFAOYSA-N

>  <SMILES>
[Na+]

$$$$
3HH5_NA_A_166
  RCSB PDB12061708533D
Coordinates from PDB:3HH5:A:166 Model:1 without hydrogens
  1  0  0  0  0  0            999 V2000
   42.1550   16.9620   11.6490  Na 0  3  0  0  0  0  0  0  0  0  0  0
M  CHG  1   1   1
M  END
>  <InstanceId>
3HH5_NA_A_166

>  <ChemCompId>
NA

>  <PdbId>
3HH5

>  <ChainId>
A

>  <ResidueNumber>
166

>  <InsertionCode>


>  <Model>
1

>  <AltIds>


>  <MissingHeavyAtoms>
0

>  <ObservedFormula>
Na

>  <Name>
SODIUM ION

>  <SystematicName>
sodium(+1) cation

>  <Synonyms>


>  <Type>
NON-POLYMER

>  <Formula>
Na

>  <MolecularWeight>
22.99

>  <ModifiedDate>
2011-06-04

>  <Parent>


>  <OneLetterCode>


>  <SubcomponentList>


>  <AmbiguousFlag>
N

>  <InChI>
InChI=1S/Na/q+1

>  <InChIKey>
FKNQFGJONOIPTF-UHFFFAOYSA-N

>  <SMILES>
[Na+]

$$$$
3HU9_NBE_A_166
  RCSB PDB12061708573D
Coordinates from PDB:3HU9:A:166 Model:1 without hydrogens
  8  8  0  0  0  0            999 V2000
  -41.2140   20.1850   13.0730   C 0  0  0  0  0  0  0  0  0  0  0  0
  -40.5580   20.5960   14.1540   N 0  0  0  0  0  0  0  0  0  0  0  0
  -40.0600   19.6590   15.0950   O 0  0  0  0  0  0  0  0  0  0  0  0
  -40.5090   19.8060   11.9340   C 0  0  0  0  0  0  0  0  0  0  0  0
  -41.2010   19.3860   10.7970   C 0  0  0  0  0  0  0  0  0  0  0  0
  -42.5940   19.3380   10.8070   C 0  0  0  0  0  0  0  0  0  0  0  0
  -43.3020   19.7030   11.9510   C 0  0  0  0  0  0  0  0  0  0  0  0
  -42.6080   20.1330   13.0820   C 0  0  0  0  0  0  0  0  0  0  0  0
  1  2  1  0  0  0  0
  1  4  2  0  0  0  0
  1  8  1  0  0  0  0
  2  3  2  0  0  0  0
  4  5  1  0  0  0  0
  5  6  2  0  0  0  0
  6  7  1  0  0  0  0
  7  8  2  0  0  0  0
M  END
>  <InstanceId>
3HU9_NBE_A_166

>  <ChemCompId>
NBE

>  <PdbId>
3HU9

>  <ChainId>
A

>  <ResidueNumber>
166

>  <InsertionCode>


>  <Model>
1

>  <AltIds>


>  <MissingHeavyAtoms>
0

>  <ObservedFormula>
C6 N O

>  <Name>
NITROSOBENZENE

>  <SystematicName>
nitrosobenzene

>  <Synonyms>


>  <Type>
NON-POLYMER

>  <Formula>
C6 H5 N O

>  <MolecularWeight>
107.11

>  <ModifiedDate>
2011-06-04

>  <Parent>


>  <OneLetterCode>


>  <SubcomponentList>


>  <AmbiguousFlag>
N

>  <InChI>
InChI=1S/C6H5NO/c8-7-6-4-2-1-3-5-6/h1-5H

>  <InChIKey>
NLRKCXQQSUWLCH-UHFFFAOYSA-N

>  <SMILES>
c1ccc(cc1)N=O

$$$$
4EKP_NBZ_A_202
  RCSB PDB12061712243D
Coordinates from PDB:4EKP:A:202 Model:1 without hydrogens
  9  9  0  0  0  0            999 V2000
    3.0810    9.4780    2.0690   C 0  0  0  0  0  0  0  0  0  0  0  0
    4.0420   10.4810    2.1100   C 0  0  0  0  0  0  0  0  0  0  0  0
    5.1180   10.4440    1.2420   C 0  0  0  0  0  0  0  0  0  0  0  0
    5.2390    9.3950    0.3380   C 0  0  0  0  0  0  0  0  0  0  0  0
    4.2980    8.3780    0.3060   C 0  0  0  0  0  0  0  0  0  0  0  0
    3.2200    8.4230    1.1800   C 0  0  0  0  0  0  0  0  0  0  0  0
    2.3050    7.4630    1.1570   N 0  3  0  0  0  0  0  0  0  0  0  0
    1.1930    7.5400    1.9940   O 0  5  0  0  0  0  0  0  0  0  0  0
    2.4340    6.3890    0.2630   O 0  0  0  0  0  0  0  0  0  0  0  0
  1  2  2  0  0  0  0
  1  6  1  0  0  0  0
  2  3  1  0  0  0  0
  3  4  2  0  0  0  0
  4  5  1  0  0  0  0
  5  6  2  0  0  0  0
  6  7  1  0  0  0  0
  7  8  1  0  0  0  0
  7  9  2  0  0  0  0
M  CHG  2   7   1   8  -1
M  END
>  <InstanceId>
4EKP_NBZ_A_202

>  <ChemCompId>
NBZ

>  <PdbId>
4EKP

>  <ChainId>
A

>  <ResidueNumber>
202

>  <InsertionCode>


>  <Model>
1

>  <AltIds>


>  <MissingHeavyAtoms>
0

>  <ObservedFormula>
C6 N O2

>  <Name>
NITROBENZENE

>  <SystematicName>
nitrobenzene

>  <Synonyms>


>  <Type>
NON-POLYMER

>  <Formula>
C6 H5 N O2

>  <MolecularWeight>
123.109

>  <ModifiedDate>
2011-06-04

>  <Parent>


>  <OneLetterCode>


>  <SubcomponentList>


>  <AmbiguousFlag>
N

>  <InChI>
InChI=1S/C6H5NO2/c8-7(9)6-4-2-1-3-5-6/h1-5H

>  <InChIKey>
LQNUZADURLCDLV-UHFFFAOYSA-N

>  <SMILES>
c1ccc(cc1)[N+](=O)[O-]

$$$$
4EKQ_NPO_A_202
  RCSB PDB12061712243D
Coordinates from PDB:4EKQ:A:202 Model:1 without hydrogens
 10 10  0  0  0  0            999 V2000
    3.4130    8.7730    1.2760   C 0  0  0  0  0  0  0  0  0  0  0  0
    3.3990    9.8630    2.1260   C 0  0  0  0  0  0  0  0  0  0  0  0
    4.4060   10.7720    1.9970   C 0  0  0  0  0  0  0  0  0  0  0  0
    5.3170   10.7100    0.9090   C 0  0  0  0  0  0  0  0  0  0  0  0
    5.2920    9.6750    0.0230   C 0  0  0  0  0  0  0  0  0  0  0  0
    4.3290    8.6880    0.2300   C 0  0  0  0  0  0  0  0  0  0  0  0
    6.2560   11.7040    0.7430   O 0  0  0  0  0  0  0  0  0  0  0  0
    2.4660    7.7790    1.4260   N 0  3  0  0  0  0  0  0  0  0  0  0
    1.6170    7.7950    2.3010   O 0  5  0  0  0  0  0  0  0  0  0  0
    2.5050    6.7290    0.6040   O 0  0  0  0  0  0  0  0  0  0  0  0
  1  2  2  0  0  0  0
  1  6  1  0  0  0  0
  1  8  1  0  0  0  0
  2  3  1  0  0  0  0
  3  4  2  0  0  0  0
  4  5  1  0  0  0  0
  4  7  1  0  0  0  0
  5  6  2  0  0  0  0
  8  9  1  0  0  0  0
  8 10  2  0  0  0  0
M  CHG  2   8   1   9  -1
M  END
>  <InstanceId>
4EKQ_NPO_A_202

>  <ChemCompId>
NPO

>  <PdbId>
4EKQ

>  <ChainId>
A

>  <ResidueNumber>
202

>  <InsertionCode>


>  <Model>
1

>  <AltIds>


>  <MissingHeavyAtoms>
0

>  <ObservedFormula>
C6 N O3

>  <Name>
P-NITROPHENOL

>  <SystematicName>
4-nitrophenol

>  <Synonyms>


>  <Type>
NON-POLYMER

>  <Formula>
C6 H5 N O3

>  <MolecularWeight>
139.109

>  <ModifiedDate>
2016-08-23

>  <Parent>


>  <OneLetterCode>


>  <SubcomponentList>


>  <AmbiguousFlag>
N

>  <InChI>
InChI=1S/C6H5NO3/c8-6-3-1-5(2-4-6)7(9)10/h1-4,8H

>  <InChIKey>
BTJIUGUIPKRLHP-UHFFFAOYSA-N

>  <SMILES>
c1cc(ccc1[N+](=O)[O-])O

$$$$
1OVK_NYL_A_405
  RCSB PDB12061703363D
Coordinates from PDB:1OVK:A:405 Model:1 without hydrogens
 10 10  0  0  0  0            999 V2000
   27.4060    7.0850    3.7960   C 0  0  0  0  0  0  0  0  0  0  0  0
   26.7960    5.9720    3.2080   C 0  0  0  0  0  0  0  0  0  0  0  0
   27.2410    7.3000    5.1570   C 0  0  0  0  0  0  0  0  0  0  0  0
   28.1880    7.9980    3.0530   N 0  0  0  0  0  0  0  0  0  0  0  0
   26.0260    5.0920    3.9720   C 0  0  0  0  0  0  0  0  0  0  0  0
   26.4770    6.4160    5.9140   C 0  0  0  0  0  0  0  0  0  0  0  0
   25.8640    5.3070    5.3370   C 0  0  0  0  0  0  0  0  0  0  0  0
   28.4190    7.7340    1.6300   C 0  0  0  0  0  0  0  0  0  0  0  0
   27.9060    8.8680    0.7510   C 0  0  0  0  0  0  0  0  0  0  0  0
   27.2050    8.6250   -0.3440   C 0  0  0  0  0  0  0  0  0  0  0  0
  1  2  2  0  0  0  0
  1  3  1  0  0  0  0
  1  4  1  0  0  0  0
  2  5  1  0  0  0  0
  3  6  2  0  0  0  0
  4  8  1  0  0  0  0
  5  7  2  0  0  0  0
  6  7  1  0  0  0  0
  8  9  1  0  0  0  0
  9 10  2  0  0  0  0
M  END
>  <InstanceId>
1OVK_NYL_A_405

>  <ChemCompId>
NYL

>  <PdbId>
1OVK

>  <ChainId>
A

>  <ResidueNumber>
405

>  <InsertionCode>


>  <Model>
1

>  <AltIds>


>  <MissingHeavyAtoms>
0

>  <ObservedFormula>
C9 N

>  <Name>
N-ALLYL-ANILINE

>  <SystematicName>
N-prop-2-enylaniline

>  <Synonyms>


>  <Type>
NON-POLYMER

>  <Formula>
C9 H11 N

>  <MolecularWeight>
133.19

>  <ModifiedDate>
2011-06-04

>  <Parent>


>  <OneLetterCode>


>  <SubcomponentList>


>  <AmbiguousFlag>
N

>  <InChI>
InChI=1S/C9H11N/c1-2-8-10-9-6-4-3-5-7-9/h2-7,10H,1,8H2

>  <InChIKey>
LQFLWKPCQITJIH-UHFFFAOYSA-N

>  <SMILES>
C=CCNc1ccccc1

$$$$
188L_OXE_A_400
  RCSB PDB12061701563D
Coordinates from PDB:188L:A:400 Model:1 without hydrogens
  8  8  0  0  0  0            999 V2000
   27.2140    7.4650    4.4890   C 0  0  0  0  0  0  0  0  0  0  0  0
   27.5750    6.9460    3.2690   C 0  0  0  0  0  0  0  0  0  0  0  0
   27.2520    5.6280    2.9580   C 0  0  0  0  0  0  0  0  0  0  0  0
   26.4320    4.8790    3.8100   C 0  0  0  0  0  0  0  0  0  0  0  0
   26.0190    5.4030    5.0400   C 0  0  0  0  0  0  0  0  0  0  0  0
   26.4360    6.6760    5.4130   C 0  0  0  0  0  0  0  0  0  0  0  0
   27.6430    8.8780    4.7960   C 0  0  0  0  0  0  0  0  0  0  0  0
   28.4530    7.7660    2.3490   C 0  0  0  0  0  0  0  0  0  0  0  0
  1  2  2  0  0  0  0
  1  6  1  0  0  0  0
  1  7  1  0  0  0  0
  2  3  1  0  0  0  0
  2  8  1  0  0  0  0
  3  4  2  0  0  0  0
  4  5  1  0  0  0  0
  5  6  2  0  0  0  0
M  END
>  <InstanceId>
188L_OXE_A_400

>  <ChemCompId>
OXE

>  <PdbId>
188L

>  <ChainId>
A

>  <ResidueNumber>
400

>  <InsertionCode>


>  <Model>
1

>  <AltIds>


>  <MissingHeavyAtoms>
0

>  <ObservedFormula>
C8

>  <Name>
ORTHO-XYLENE

>  <SystematicName>
1,2-dimethylbenzene

>  <Synonyms>


>  <Type>
NON-POLYMER

>  <Formula>
C8 H10

>  <MolecularWeight>
106.165

>  <ModifiedDate>
2011-06-04

>  <Parent>


>  <OneLetterCode>


>  <SubcomponentList>


>  <AmbiguousFlag>
N

>  <InChI>
InChI=1S/C8H10/c1-7-5-3-4-6-8(7)2/h3-6H,1-2H3

>  <InChIKey>
CTQNGGLPUBDAKN-UHFFFAOYSA-N

>  <SMILES>
Cc1ccccc1C

$$$$
3DN4_PIH_A_900
  RCSB PDB12061708203D
Coordinates from PDB:3DN4:A:900 Model:1 without hydrogens
  7  7  0  0  0  0            999 V2000
   26.6100    7.5000    5.1780   C 0  0  0  0  0  0  0  0  0  0  0  0
   25.6780    6.7090    5.8560   C 0  0  0  0  0  0  0  0  0  0  0  0
   25.1910    5.5440    5.2580   C 0  0  0  0  0  0  0  0  0  0  0  0
   25.6370    5.1710    3.9860   C 0  0  0  0  0  0  0  0  0  0  0  0
   26.5690    5.9660    3.3100   C 0  0  0  0  0  0  0  0  0  0  0  0
   27.0570    7.1310    3.9060   C 0  0  0  0  0  0  0  0  0  0  0  0
   28.4590    8.3220    2.8990   I 0  0  0  0  0  0  0  0  0  0  0  0
  1  2  2  0  0  0  0
  1  6  1  0  0  0  0
  2  3  1  0  0  0  0
  3  4  2  0  0  0  0
  4  5  1  0  0  0  0
  5  6  2  0  0  0  0
  6  7  1  0  0  0  0
M  END
>  <InstanceId>
3DN4_PIH_A_900

>  <ChemCompId>
PIH

>  <PdbId>
3DN4

>  <ChainId>
A

>  <ResidueNumber>
900

>  <InsertionCode>


>  <Model>
1

>  <AltIds>


>  <MissingHeavyAtoms>
0

>  <ObservedFormula>
C6 I

>  <Name>
IODOPHENYL

>  <SystematicName>
iodobenzene

>  <Synonyms>


>  <Type>
NON-POLYMER

>  <Formula>
C6 H5 I

>  <MolecularWeight>
204.008

>  <ModifiedDate>
2011-06-04

>  <Parent>


>  <OneLetterCode>


>  <SubcomponentList>


>  <AmbiguousFlag>
N

>  <InChI>
InChI=1S/C6H5I/c7-6-4-2-1-3-5-6/h1-5H

>  <InChIKey>
SNHMUERNLJLMHN-UHFFFAOYSA-N

>  <SMILES>
c1ccc(cc1)I

$$$$
3DNA_PIH_A_900
  RCSB PDB12061708203D
Coordinates from PDB:3DNA:A:900 Model:1 without hydrogens
  7  7  0  0  0  0            999 V2000
   26.6060    7.1840    5.1780   C 0  0  0  0  0  0  0  0  0  0  0  0
   25.7320    6.3480    5.8740   C 0  0  0  0  0  0  0  0  0  0  0  0
   25.2560    5.1830    5.2660   C 0  0  0  0  0  0  0  0  0  0  0  0
   25.6540    4.8600    3.9670   C 0  0  0  0  0  0  0  0  0  0  0  0
   26.5290    5.7010    3.2710   C 0  0  0  0  0  0  0  0  0  0  0  0
   27.0070    6.8650    3.8790   C 0  0  0  0  0  0  0  0  0  0  0  0
   28.3250    8.1380    2.8600   I 0  0  0  0  0  0  0  0  0  0  0  0
  1  2  2  0  0  0  0
  1  6  1  0  0  0  0
  2  3  1  0  0  0  0
  3  4  2  0  0  0  0
  4  5  1  0  0  0  0
  5  6  2  0  0  0  0
  6  7  1  0  0  0  0
M  END
>  <InstanceId>
3DNA_PIH_A_900

>  <ChemCompId>
PIH

>  <PdbId>
3DNA

>  <ChainId>
A

>  <ResidueNumber>
900

>  <InsertionCode>


>  <Model>
1

>  <AltIds>


>  <MissingHeavyAtoms>
0

>  <ObservedFormula>
C6 I

>  <Name>
IODOPHENYL

>  <SystematicName>
iodobenzene

>  <Synonyms>


>  <Type>
NON-POLYMER

>  <Formula>
C6 H5 I

>  <MolecularWeight>
204.008

>  <ModifiedDate>
2011-06-04

>  <Parent>


>  <OneLetterCode>


>  <SubcomponentList>


>  <AmbiguousFlag>
N

>  <InChI>
InChI=1S/C6H5I/c7-6-4-2-1-3-5-6/h1-5H

>  <InChIKey>
SNHMUERNLJLMHN-UHFFFAOYSA-N

>  <SMILES>
c1ccc(cc1)I

$$$$
1XEP_PO4_A_608
  RCSB PDB12061704373D
Coordinates from PDB:1XEP:A:608 Model:1 without hydrogens
  5  4  0  0  0  0            999 V2000
   45.6790   25.5190   12.2260   P 0  0  0  0  0  0  0  0  0  0  0  0
   45.3390   24.1000   11.8280   O 0  0  0  0  0  0  0  0  0  0  0  0
   47.1400   25.7720   11.8960   O 0  5  0  0  0  0  0  0  0  0  0  0
   44.8320   26.4760   11.4700   O 0  5  0  0  0  0  0  0  0  0  0  0
   45.4420   25.6950   13.7100   O 0  5  0  0  0  0  0  0  0  0  0  0
  1  2  2  0  0  0  0
  1  3  1  0  0  0  0
  1  4  1  0  0  0  0
  1  5  1  0  0  0  0
M  CHG  3   3  -1   4  -1   5  -1
M  END
>  <InstanceId>
1XEP_PO4_A_608

>  <ChemCompId>
PO4

>  <PdbId>
1XEP

>  <ChainId>
A

>  <ResidueNumber>
608

>  <InsertionCode>


>  <Model>
1

>  <AltIds>


>  <MissingHeavyAtoms>
0

>  <ObservedFormula>
O4 P

>  <Name>
PHOSPHATE ION

>  <SystematicName>
phosphate

>  <Synonyms>


>  <Type>
NON-POLYMER

>  <Formula>
O4 P

>  <MolecularWeight>
94.971

>  <ModifiedDate>
2011-06-04

>  <Parent>


>  <OneLetterCode>


>  <SubcomponentList>


>  <AmbiguousFlag>
N

>  <InChI>
InChI=1S/H3O4P/c1-5(2,3)4/h(H3,1,2,3,4)/p-3

>  <InChIKey>
NBIIXXVUZAFLBC-UHFFFAOYSA-K

>  <SMILES>
[O-]P(=O)([O-])[O-]

$$$$
2OTY_PO4_X_301
  RCSB PDB12061706333D
Coordinates from PDB:2OTY:X:301 Model:1 without hydrogens
  5  4  0  0  0  0            999 V2000
  -29.3680   -0.0860  -12.2100   P 0  0  0  0  0  0  0  0  0  0  0  0
  -30.5760    0.2540  -11.3780   O 0  0  0  0  0  0  0  0  0  0  0  0
  -28.1930    0.8460  -11.9530   O 0  5  0  0  0  0  0  0  0  0  0  0
  -28.9820   -1.4890  -11.7970   O 0  5  0  0  0  0  0  0  0  0  0  0
  -29.7130   -0.0340  -13.6880   O 0  5  0  0  0  0  0  0  0  0  0  0
  1  2  2  0  0  0  0
  1  3  1  0  0  0  0
  1  4  1  0  0  0  0
  1  5  1  0  0  0  0
M  CHG  3   3  -1   4  -1   5  -1
M  END
>  <InstanceId>
2OTY_PO4_X_301

>  <ChemCompId>
PO4

>  <PdbId>
2OTY

>  <ChainId>
X

>  <ResidueNumber>
301

>  <InsertionCode>


>  <Model>
1

>  <AltIds>


>  <MissingHeavyAtoms>
0

>  <ObservedFormula>
O4 P

>  <Name>
PHOSPHATE ION

>  <SystematicName>
phosphate

>  <Synonyms>


>  <Type>
NON-POLYMER

>  <Formula>
O4 P

>  <MolecularWeight>
94.971

>  <ModifiedDate>
2011-06-04

>  <Parent>


>  <OneLetterCode>


>  <SubcomponentList>


>  <AmbiguousFlag>
N

>  <InChI>
InChI=1S/H3O4P/c1-5(2,3)4/h(H3,1,2,3,4)/p-3

>  <InChIKey>
NBIIXXVUZAFLBC-UHFFFAOYSA-K

>  <SMILES>
[O-]P(=O)([O-])[O-]

$$$$
2OTZ_PO4_X_201
  RCSB PDB12061706333D
Coordinates from PDB:2OTZ:X:201 Model:1 without hydrogens
  5  4  0  0  0  0            999 V2000
   30.6850    0.2520   -3.9220   P 0  0  0  0  0  0  0  0  0  0  0  0
   31.1810    1.6230   -4.2230   O 0  0  0  0  0  0  0  0  0  0  0  0
   29.4630    0.0140   -4.6830   O 0  5  0  0  0  0  0  0  0  0  0  0
   31.8560   -0.6220   -4.1140   O 0  5  0  0  0  0  0  0  0  0  0  0
   30.4060    0.0730   -2.4490   O 0  5  0  0  0  0  0  0  0  0  0  0
  1  2  2  0  0  0  0
  1  3  1  0  0  0  0
  1  4  1  0  0  0  0
  1  5  1  0  0  0  0
M  CHG  3   3  -1   4  -1   5  -1
M  END
>  <InstanceId>
2OTZ_PO4_X_201

>  <ChemCompId>
PO4

>  <PdbId>
2OTZ

>  <ChainId>
X

>  <ResidueNumber>
201

>  <InsertionCode>


>  <Model>
1

>  <AltIds>


>  <MissingHeavyAtoms>
0

>  <ObservedFormula>
O4 P

>  <Name>
PHOSPHATE ION

>  <SystematicName>
phosphate

>  <Synonyms>


>  <Type>
NON-POLYMER

>  <Formula>
O4 P

>  <MolecularWeight>
94.971

>  <ModifiedDate>
2011-06-04

>  <Parent>


>  <OneLetterCode>


>  <SubcomponentList>


>  <AmbiguousFlag>
N

>  <InChI>
InChI=1S/H3O4P/c1-5(2,3)4/h(H3,1,2,3,4)/p-3

>  <InChIKey>
NBIIXXVUZAFLBC-UHFFFAOYSA-K

>  <SMILES>
[O-]P(=O)([O-])[O-]

$$$$
2OU0_PO4_X_301
  RCSB PDB12061706333D
Coordinates from PDB:2OU0:X:301 Model:1 without hydrogens
  5  4  0  0  0  0            999 V2000
  -15.7120   26.6900   12.1700   P 0  0  0  0  0  0  0  0  0  0  0  0
  -15.4010   26.3770   13.6300   O 0  0  0  0  0  0  0  0  0  0  0  0
  -15.5010   28.1740   11.9350   O 0  5  0  0  0  0  0  0  0  0  0  0
  -14.8720   25.7890   11.2930   O 0  5  0  0  0  0  0  0  0  0  0  0
  -17.1570   26.3850   11.8240   O 0  5  0  0  0  0  0  0  0  0  0  0
  1  2  2  0  0  0  0
  1  3  1  0  0  0  0
  1  4  1  0  0  0  0
  1  5  1  0  0  0  0
M  CHG  3   3  -1   4  -1   5  -1
M  END
>  <InstanceId>
2OU0_PO4_X_301

>  <ChemCompId>
PO4

>  <PdbId>
2OU0

>  <ChainId>
X

>  <ResidueNumber>
301

>  <InsertionCode>


>  <Model>
1

>  <AltIds>


>  <MissingHeavyAtoms>
0

>  <ObservedFormula>
O4 P

>  <Name>
PHOSPHATE ION

>  <SystematicName>
phosphate

>  <Synonyms>


>  <Type>
NON-POLYMER

>  <Formula>
O4 P

>  <MolecularWeight>
94.971

>  <ModifiedDate>
2011-06-04

>  <Parent>


>  <OneLetterCode>


>  <SubcomponentList>


>  <AmbiguousFlag>
N

>  <InChI>
InChI=1S/H3O4P/c1-5(2,3)4/h(H3,1,2,3,4)/p-3

>  <InChIKey>
NBIIXXVUZAFLBC-UHFFFAOYSA-K

>  <SMILES>
[O-]P(=O)([O-])[O-]

$$$$
2RAY_PO4_X_1001
  RCSB PDB12061706543D
Coordinates from PDB:2RAY:X:1001 Model:1 without hydrogens
  5  4  0  0  0  0            999 V2000
   46.0540   25.5900   12.1360   P 0  0  0  0  0  0  0  0  0  0  0  0
   47.5030   25.8790   11.7350   O 0  0  0  0  0  0  0  0  0  0  0  0
   45.2060   26.4840   11.2610   O 0  5  0  0  0  0  0  0  0  0  0  0
   45.7810   24.0990   11.9610   O 0  5  0  0  0  0  0  0  0  0  0  0
   45.7710   25.8990   13.6200   O 0  5  0  0  0  0  0  0  0  0  0  0
  1  2  2  0  0  0  0
  1  3  1  0  0  0  0
  1  4  1  0  0  0  0
  1  5  1  0  0  0  0
M  CHG  3   3  -1   4  -1   5  -1
M  END
>  <InstanceId>
2RAY_PO4_X_1001

>  <ChemCompId>
PO4

>  <PdbId>
2RAY

>  <ChainId>
X

>  <ResidueNumber>
1001

>  <InsertionCode>


>  <Model>
1

>  <AltIds>


>  <MissingHeavyAtoms>
0

>  <ObservedFormula>
O4 P

>  <Name>
PHOSPHATE ION

>  <SystematicName>
phosphate

>  <Synonyms>


>  <Type>
NON-POLYMER

>  <Formula>
O4 P

>  <MolecularWeight>
94.971

>  <ModifiedDate>
2011-06-04

>  <Parent>


>  <OneLetterCode>


>  <SubcomponentList>


>  <AmbiguousFlag>
N

>  <InChI>
InChI=1S/H3O4P/c1-5(2,3)4/h(H3,1,2,3,4)/p-3

>  <InChIKey>
NBIIXXVUZAFLBC-UHFFFAOYSA-K

>  <SMILES>
[O-]P(=O)([O-])[O-]

$$$$
2RAZ_PO4_X_2001
  RCSB PDB12061706543D
Coordinates from PDB:2RAZ:X:2001 Model:1 without hydrogens
  5  4  0  0  0  0            999 V2000
  -15.4970   26.7400   12.2320   P 0  0  0  0  0  0  0  0  0  0  0  0
  -15.2480   28.2180   11.9110   O 0  0  0  0  0  0  0  0  0  0  0  0
  -16.9540   26.4640   11.9220   O 0  5  0  0  0  0  0  0  0  0  0  0
  -14.6850   25.7820   11.3870   O 0  5  0  0  0  0  0  0  0  0  0  0
  -15.2080   26.4550   13.7030   O 0  5  0  0  0  0  0  0  0  0  0  0
  1  2  2  0  0  0  0
  1  3  1  0  0  0  0
  1  4  1  0  0  0  0
  1  5  1  0  0  0  0
M  CHG  3   3  -1   4  -1   5  -1
M  END
>  <InstanceId>
2RAZ_PO4_X_2001

>  <ChemCompId>
PO4

>  <PdbId>
2RAZ

>  <ChainId>
X

>  <ResidueNumber>
2001

>  <InsertionCode>


>  <Model>
1

>  <AltIds>


>  <MissingHeavyAtoms>
0

>  <ObservedFormula>
O4 P

>  <Name>
PHOSPHATE ION

>  <SystematicName>
phosphate

>  <Synonyms>


>  <Type>
NON-POLYMER

>  <Formula>
O4 P

>  <MolecularWeight>
94.971

>  <ModifiedDate>
2011-06-04

>  <Parent>


>  <OneLetterCode>


>  <SubcomponentList>


>  <AmbiguousFlag>
N

>  <InChI>
InChI=1S/H3O4P/c1-5(2,3)4/h(H3,1,2,3,4)/p-3

>  <InChIKey>
NBIIXXVUZAFLBC-UHFFFAOYSA-K

>  <SMILES>
[O-]P(=O)([O-])[O-]

$$$$
2RB0_PO4_X_2001
  RCSB PDB12061706543D
Coordinates from PDB:2RB0:X:2001 Model:1 without hydrogens
  5  4  0  0  0  0            999 V2000
  -15.4540   26.7160   12.1630   P 0  0  0  0  0  0  0  0  0  0  0  0
  -15.1800   28.1810   11.8940   O 0  0  0  0  0  0  0  0  0  0  0  0
  -16.8820   26.4400   11.7500   O 0  5  0  0  0  0  0  0  0  0  0  0
  -14.5580   25.7970   11.3660   O 0  5  0  0  0  0  0  0  0  0  0  0
  -15.2420   26.4730   13.6470   O 0  5  0  0  0  0  0  0  0  0  0  0
  1  2  2  0  0  0  0
  1  3  1  0  0  0  0
  1  4  1  0  0  0  0
  1  5  1  0  0  0  0
M  CHG  3   3  -1   4  -1   5  -1
M  END
>  <InstanceId>
2RB0_PO4_X_2001

>  <ChemCompId>
PO4

>  <PdbId>
2RB0

>  <ChainId>
X

>  <ResidueNumber>
2001

>  <InsertionCode>


>  <Model>
1

>  <AltIds>


>  <MissingHeavyAtoms>
0

>  <ObservedFormula>
O4 P

>  <Name>
PHOSPHATE ION

>  <SystematicName>
phosphate

>  <Synonyms>


>  <Type>
NON-POLYMER

>  <Formula>
O4 P

>  <MolecularWeight>
94.971

>  <ModifiedDate>
2011-06-04

>  <Parent>


>  <OneLetterCode>


>  <SubcomponentList>


>  <AmbiguousFlag>
N

>  <InChI>
InChI=1S/H3O4P/c1-5(2,3)4/h(H3,1,2,3,4)/p-3

>  <InChIKey>
NBIIXXVUZAFLBC-UHFFFAOYSA-K

>  <SMILES>
[O-]P(=O)([O-])[O-]

$$$$
2RB1_PO4_X_2001
  RCSB PDB12061706543D
Coordinates from PDB:2RB1:X:2001 Model:1 without hydrogens
  5  4  0  0  0  0            999 V2000
  -17.8220   38.7810    1.9320   P 0  0  0  0  0  0  0  0  0  0  0  0
  -18.3620   39.6800    0.8500   O 0  0  0  0  0  0  0  0  0  0  0  0
  -18.7880   38.7180    3.0930   O 0  5  0  0  0  0  0  0  0  0  0  0
  -17.6390   37.3960    1.3560   O 0  5  0  0  0  0  0  0  0  0  0  0
  -16.5120   39.3490    2.4050   O 0  5  0  0  0  0  0  0  0  0  0  0
  1  2  2  0  0  0  0
  1  3  1  0  0  0  0
  1  4  1  0  0  0  0
  1  5  1  0  0  0  0
M  CHG  3   3  -1   4  -1   5  -1
M  END
>  <InstanceId>
2RB1_PO4_X_2001

>  <ChemCompId>
PO4

>  <PdbId>
2RB1

>  <ChainId>
X

>  <ResidueNumber>
2001

>  <InsertionCode>


>  <Model>
1

>  <AltIds>


>  <MissingHeavyAtoms>
0

>  <ObservedFormula>
O4 P

>  <Name>
PHOSPHATE ION

>  <SystematicName>
phosphate

>  <Synonyms>


>  <Type>
NON-POLYMER

>  <Formula>
O4 P

>  <MolecularWeight>
94.971

>  <ModifiedDate>
2011-06-04

>  <Parent>


>  <OneLetterCode>


>  <SubcomponentList>


>  <AmbiguousFlag>
N

>  <InChI>
InChI=1S/H3O4P/c1-5(2,3)4/h(H3,1,2,3,4)/p-3

>  <InChIKey>
NBIIXXVUZAFLBC-UHFFFAOYSA-K

>  <SMILES>
[O-]P(=O)([O-])[O-]

$$$$
2RB2_PO4_X_2001
  RCSB PDB12061706543D
Coordinates from PDB:2RB2:X:2001 Model:1 without hydrogens
  5  4  0  0  0  0            999 V2000
   29.3360    0.0150  -12.2040   P 0  0  0  0  0  0  0  0  0  0  0  0
   29.6960   -0.1250  -13.6780   O 0  0  0  0  0  0  0  0  0  0  0  0
   28.8560    1.4160  -11.8640   O 0  5  0  0  0  0  0  0  0  0  0  0
   28.2220   -0.9500  -11.8060   O 0  5  0  0  0  0  0  0  0  0  0  0
   30.5820   -0.2250  -11.3810   O 0  5  0  0  0  0  0  0  0  0  0  0
  1  2  2  0  0  0  0
  1  3  1  0  0  0  0
  1  4  1  0  0  0  0
  1  5  1  0  0  0  0
M  CHG  3   3  -1   4  -1   5  -1
M  END
>  <InstanceId>
2RB2_PO4_X_2001

>  <ChemCompId>
PO4

>  <PdbId>
2RB2

>  <ChainId>
X

>  <ResidueNumber>
2001

>  <InsertionCode>


>  <Model>
1

>  <AltIds>


>  <MissingHeavyAtoms>
0

>  <ObservedFormula>
O4 P

>  <Name>
PHOSPHATE ION

>  <SystematicName>
phosphate

>  <Synonyms>


>  <Type>
NON-POLYMER

>  <Formula>
O4 P

>  <MolecularWeight>
94.971

>  <ModifiedDate>
2011-06-04

>  <Parent>


>  <OneLetterCode>


>  <SubcomponentList>


>  <AmbiguousFlag>
N

>  <InChI>
InChI=1S/H3O4P/c1-5(2,3)4/h(H3,1,2,3,4)/p-3

>  <InChIKey>
NBIIXXVUZAFLBC-UHFFFAOYSA-K

>  <SMILES>
[O-]P(=O)([O-])[O-]

$$$$
2RBN_PO4_A_2001
  RCSB PDB12061706543D
Coordinates from PDB:2RBN:A:2001 Model:1 without hydrogens
  5  4  0  0  0  0            999 V2000
   45.6600   25.3640   12.2240   P 0  0  0  0  0  0  0  0  0  0  0  0
   47.1090   25.6440   11.8530   O 0  0  0  0  0  0  0  0  0  0  0  0
   44.8210   26.3330   11.4110   O 0  5  0  0  0  0  0  0  0  0  0  0
   45.3650   23.9260   11.8280   O 0  5  0  0  0  0  0  0  0  0  0  0
   45.4240   25.5180   13.7120   O 0  5  0  0  0  0  0  0  0  0  0  0
  1  2  2  0  0  0  0
  1  3  1  0  0  0  0
  1  4  1  0  0  0  0
  1  5  1  0  0  0  0
M  CHG  3   3  -1   4  -1   5  -1
M  END
>  <InstanceId>
2RBN_PO4_A_2001

>  <ChemCompId>
PO4

>  <PdbId>
2RBN

>  <ChainId>
A

>  <ResidueNumber>
2001

>  <InsertionCode>


>  <Model>
1

>  <AltIds>


>  <MissingHeavyAtoms>
0

>  <ObservedFormula>
O4 P

>  <Name>
PHOSPHATE ION

>  <SystematicName>
phosphate

>  <Synonyms>


>  <Type>
NON-POLYMER

>  <Formula>
O4 P

>  <MolecularWeight>
94.971

>  <ModifiedDate>
2011-06-04

>  <Parent>


>  <OneLetterCode>


>  <SubcomponentList>


>  <AmbiguousFlag>
N

>  <InChI>
InChI=1S/H3O4P/c1-5(2,3)4/h(H3,1,2,3,4)/p-3

>  <InChIKey>
NBIIXXVUZAFLBC-UHFFFAOYSA-K

>  <SMILES>
[O-]P(=O)([O-])[O-]

$$$$
2RBO_PO4_A_2001
  RCSB PDB12061706543D
Coordinates from PDB:2RBO:A:2001 Model:1 without hydrogens
  5  4  0  0  0  0            999 V2000
   45.6350   25.4070   12.2160   P 0  0  0  0  0  0  0  0  0  0  0  0
   47.0940   25.7000   11.8600   O 0  0  0  0  0  0  0  0  0  0  0  0
   44.8040   26.3930   11.4160   O 0  5  0  0  0  0  0  0  0  0  0  0
   45.3330   23.9660   11.8330   O 0  5  0  0  0  0  0  0  0  0  0  0
   45.3800   25.5830   13.7080   O 0  5  0  0  0  0  0  0  0  0  0  0
  1  2  2  0  0  0  0
  1  3  1  0  0  0  0
  1  4  1  0  0  0  0
  1  5  1  0  0  0  0
M  CHG  3   3  -1   4  -1   5  -1
M  END
>  <InstanceId>
2RBO_PO4_A_2001

>  <ChemCompId>
PO4

>  <PdbId>
2RBO

>  <ChainId>
A

>  <ResidueNumber>
2001

>  <InsertionCode>


>  <Model>
1

>  <AltIds>


>  <MissingHeavyAtoms>
0

>  <ObservedFormula>
O4 P

>  <Name>
PHOSPHATE ION

>  <SystematicName>
phosphate

>  <Synonyms>


>  <Type>
NON-POLYMER

>  <Formula>
O4 P

>  <MolecularWeight>
94.971

>  <ModifiedDate>
2011-06-04

>  <Parent>


>  <OneLetterCode>


>  <SubcomponentList>


>  <AmbiguousFlag>
N

>  <InChI>
InChI=1S/H3O4P/c1-5(2,3)4/h(H3,1,2,3,4)/p-3

>  <InChIKey>
NBIIXXVUZAFLBC-UHFFFAOYSA-K

>  <SMILES>
[O-]P(=O)([O-])[O-]

$$$$
2RBP_PO4_A_2001
  RCSB PDB12061706543D
Coordinates from PDB:2RBP:A:2001 Model:1 without hydrogens
  5  4  0  0  0  0            999 V2000
   45.6950   25.3970   12.2720   P 0  0  0  0  0  0  0  0  0  0  0  0
   47.1340   25.6930   11.9050   O 0  0  0  0  0  0  0  0  0  0  0  0
   44.8390   26.3670   11.4900   O 0  5  0  0  0  0  0  0  0  0  0  0
   45.3950   23.9670   11.8330   O 0  5  0  0  0  0  0  0  0  0  0  0
   45.4480   25.5560   13.7610   O 0  5  0  0  0  0  0  0  0  0  0  0
  1  2  2  0  0  0  0
  1  3  1  0  0  0  0
  1  4  1  0  0  0  0
  1  5  1  0  0  0  0
M  CHG  3   3  -1   4  -1   5  -1
M  END
>  <InstanceId>
2RBP_PO4_A_2001

>  <ChemCompId>
PO4

>  <PdbId>
2RBP

>  <ChainId>
A

>  <ResidueNumber>
2001

>  <InsertionCode>


>  <Model>
1

>  <AltIds>


>  <MissingHeavyAtoms>
0

>  <ObservedFormula>
O4 P

>  <Name>
PHOSPHATE ION

>  <SystematicName>
phosphate

>  <Synonyms>


>  <Type>
NON-POLYMER

>  <Formula>
O4 P

>  <MolecularWeight>
94.971

>  <ModifiedDate>
2011-06-04

>  <Parent>


>  <OneLetterCode>


>  <SubcomponentList>


>  <AmbiguousFlag>
N

>  <InChI>
InChI=1S/H3O4P/c1-5(2,3)4/h(H3,1,2,3,4)/p-3

>  <InChIKey>
NBIIXXVUZAFLBC-UHFFFAOYSA-K

>  <SMILES>
[O-]P(=O)([O-])[O-]

$$$$
2RBQ_PO4_A_2001
  RCSB PDB12061706543D
Coordinates from PDB:2RBQ:A:2001 Model:1 without hydrogens
  5  4  0  0  0  0            999 V2000
   45.7390   25.5240   12.2310   P 0  0  0  0  0  0  0  0  0  0  0  0
   47.2050   25.7500   11.8300   O 0  0  0  0  0  0  0  0  0  0  0  0
   44.8650   26.4950   11.4650   O 0  5  0  0  0  0  0  0  0  0  0  0
   45.4600   24.0770   11.8330   O 0  5  0  0  0  0  0  0  0  0  0  0
   45.4940   25.7010   13.7410   O 0  5  0  0  0  0  0  0  0  0  0  0
  1  2  2  0  0  0  0
  1  3  1  0  0  0  0
  1  4  1  0  0  0  0
  1  5  1  0  0  0  0
M  CHG  3   3  -1   4  -1   5  -1
M  END
>  <InstanceId>
2RBQ_PO4_A_2001

>  <ChemCompId>
PO4

>  <PdbId>
2RBQ

>  <ChainId>
A

>  <ResidueNumber>
2001

>  <InsertionCode>


>  <Model>
1

>  <AltIds>


>  <MissingHeavyAtoms>
0

>  <ObservedFormula>
O4 P

>  <Name>
PHOSPHATE ION

>  <SystematicName>
phosphate

>  <Synonyms>


>  <Type>
NON-POLYMER

>  <Formula>
O4 P

>  <MolecularWeight>
94.971

>  <ModifiedDate>
2011-06-04

>  <Parent>


>  <OneLetterCode>


>  <SubcomponentList>


>  <AmbiguousFlag>
N

>  <InChI>
InChI=1S/H3O4P/c1-5(2,3)4/h(H3,1,2,3,4)/p-3

>  <InChIKey>
NBIIXXVUZAFLBC-UHFFFAOYSA-K

>  <SMILES>
[O-]P(=O)([O-])[O-]

$$$$
2RBR_PO4_A_2001
  RCSB PDB12061706543D
Coordinates from PDB:2RBR:A:2001 Model:1 without hydrogens
  5  4  0  0  0  0            999 V2000
  -15.2780   26.8860    3.7670   P 0  0  0  0  0  0  0  0  0  0  0  0
  -15.2390   26.5850    2.2690   O 0  0  0  0  0  0  0  0  0  0  0  0
  -16.6690   27.3580    4.1670   O 0  5  0  0  0  0  0  0  0  0  0  0
  -14.8600   25.6810    4.5730   O 0  5  0  0  0  0  0  0  0  0  0  0
  -14.3200   28.0170    4.1210   O 0  5  0  0  0  0  0  0  0  0  0  0
  1  2  2  0  0  0  0
  1  3  1  0  0  0  0
  1  4  1  0  0  0  0
  1  5  1  0  0  0  0
M  CHG  3   3  -1   4  -1   5  -1
M  END
>  <InstanceId>
2RBR_PO4_A_2001

>  <ChemCompId>
PO4

>  <PdbId>
2RBR

>  <ChainId>
A

>  <ResidueNumber>
2001

>  <InsertionCode>


>  <Model>
1

>  <AltIds>


>  <MissingHeavyAtoms>
0

>  <ObservedFormula>
O4 P

>  <Name>
PHOSPHATE ION

>  <SystematicName>
phosphate

>  <Synonyms>


>  <Type>
NON-POLYMER

>  <Formula>
O4 P

>  <MolecularWeight>
94.971

>  <ModifiedDate>
2011-06-04

>  <Parent>


>  <OneLetterCode>


>  <SubcomponentList>


>  <AmbiguousFlag>
N

>  <InChI>
InChI=1S/H3O4P/c1-5(2,3)4/h(H3,1,2,3,4)/p-3

>  <InChIKey>
NBIIXXVUZAFLBC-UHFFFAOYSA-K

>  <SMILES>
[O-]P(=O)([O-])[O-]

$$$$
2RBS_PO4_A_2001
  RCSB PDB12061706543D
Coordinates from PDB:2RBS:A:2001 Model:1 without hydrogens
  5  4  0  0  0  0            999 V2000
   45.5280  -25.3030   28.4000   P 0  0  0  0  0  0  0  0  0  0  0  0
   46.9330  -24.8590   28.0190   O 0  0  0  0  0  0  0  0  0  0  0  0
   44.5840  -24.1520   28.0420   O 0  5  0  0  0  0  0  0  0  0  0  0
   45.1040  -26.5120   27.6020   O 0  5  0  0  0  0  0  0  0  0  0  0
   45.4850  -25.6350   29.8880   O 0  5  0  0  0  0  0  0  0  0  0  0
  1  2  2  0  0  0  0
  1  3  1  0  0  0  0
  1  4  1  0  0  0  0
  1  5  1  0  0  0  0
M  CHG  3   3  -1   4  -1   5  -1
M  END
>  <InstanceId>
2RBS_PO4_A_2001

>  <ChemCompId>
PO4

>  <PdbId>
2RBS

>  <ChainId>
A

>  <ResidueNumber>
2001

>  <InsertionCode>


>  <Model>
1

>  <AltIds>


>  <MissingHeavyAtoms>
0

>  <ObservedFormula>
O4 P

>  <Name>
PHOSPHATE ION

>  <SystematicName>
phosphate

>  <Synonyms>


>  <Type>
NON-POLYMER

>  <Formula>
O4 P

>  <MolecularWeight>
94.971

>  <ModifiedDate>
2011-06-04

>  <Parent>


>  <OneLetterCode>


>  <SubcomponentList>


>  <AmbiguousFlag>
N

>  <InChI>
InChI=1S/H3O4P/c1-5(2,3)4/h(H3,1,2,3,4)/p-3

>  <InChIKey>
NBIIXXVUZAFLBC-UHFFFAOYSA-K

>  <SMILES>
[O-]P(=O)([O-])[O-]

$$$$
3DMV_PO4_A_901
  RCSB PDB12061708203D
Coordinates from PDB:3DMV:A:901 Model:1 without hydrogens
  5  4  0  0  0  0            999 V2000
   45.8470   25.5740   12.1420   P 0  0  0  0  0  0  0  0  0  0  0  0
   45.5520   24.0960   11.8740   O 0  0  0  0  0  0  0  0  0  0  0  0
   45.6390   25.8380   13.6340   O 0  5  0  0  0  0  0  0  0  0  0  0
   44.9310   26.4720   11.3230   O 0  5  0  0  0  0  0  0  0  0  0  0
   47.2940   25.8400   11.7030   O 0  5  0  0  0  0  0  0  0  0  0  0
  1  2  2  0  0  0  0
  1  3  1  0  0  0  0
  1  4  1  0  0  0  0
  1  5  1  0  0  0  0
M  CHG  3   3  -1   4  -1   5  -1
M  END
>  <InstanceId>
3DMV_PO4_A_901

>  <ChemCompId>
PO4

>  <PdbId>
3DMV

>  <ChainId>
A

>  <ResidueNumber>
901

>  <InsertionCode>


>  <Model>
1

>  <AltIds>


>  <MissingHeavyAtoms>
0

>  <ObservedFormula>
O4 P

>  <Name>
PHOSPHATE ION

>  <SystematicName>
phosphate

>  <Synonyms>


>  <Type>
NON-POLYMER

>  <Formula>
O4 P

>  <MolecularWeight>
94.971

>  <ModifiedDate>
2011-06-04

>  <Parent>


>  <OneLetterCode>


>  <SubcomponentList>


>  <AmbiguousFlag>
N

>  <InChI>
InChI=1S/H3O4P/c1-5(2,3)4/h(H3,1,2,3,4)/p-3

>  <InChIKey>
NBIIXXVUZAFLBC-UHFFFAOYSA-K

>  <SMILES>
[O-]P(=O)([O-])[O-]

$$$$
3DMX_PO4_A_901
  RCSB PDB12061708203D
Coordinates from PDB:3DMX:A:901 Model:1 without hydrogens
  5  4  0  0  0  0            999 V2000
   29.2320    0.4900  -12.1420   P 0  0  0  0  0  0  0  0  0  0  0  0
   28.0970   -0.4910  -11.8980   O 0  0  0  0  0  0  0  0  0  0  0  0
   30.4520    0.1540  -11.3120   O 0  5  0  0  0  0  0  0  0  0  0  0
   28.7530    1.8700  -11.7180   O 0  5  0  0  0  0  0  0  0  0  0  0
   29.5930    0.4580  -13.6240   O 0  5  0  0  0  0  0  0  0  0  0  0
  1  2  2  0  0  0  0
  1  3  1  0  0  0  0
  1  4  1  0  0  0  0
  1  5  1  0  0  0  0
M  CHG  3   3  -1   4  -1   5  -1
M  END
>  <InstanceId>
3DMX_PO4_A_901

>  <ChemCompId>
PO4

>  <PdbId>
3DMX

>  <ChainId>
A

>  <ResidueNumber>
901

>  <InsertionCode>


>  <Model>
1

>  <AltIds>


>  <MissingHeavyAtoms>
0

>  <ObservedFormula>
O4 P

>  <Name>
PHOSPHATE ION

>  <SystematicName>
phosphate

>  <Synonyms>


>  <Type>
NON-POLYMER

>  <Formula>
O4 P

>  <MolecularWeight>
94.971

>  <ModifiedDate>
2011-06-04

>  <Parent>


>  <OneLetterCode>


>  <SubcomponentList>


>  <AmbiguousFlag>
N

>  <InChI>
InChI=1S/H3O4P/c1-5(2,3)4/h(H3,1,2,3,4)/p-3

>  <InChIKey>
NBIIXXVUZAFLBC-UHFFFAOYSA-K

>  <SMILES>
[O-]P(=O)([O-])[O-]

$$$$
3DMZ_PO4_A_901
  RCSB PDB12061708203D
Coordinates from PDB:3DMZ:A:901 Model:1 without hydrogens
  5  4  0  0  0  0            999 V2000
   29.2380    0.5250  -12.2390   P 0  0  0  0  0  0  0  0  0  0  0  0
   28.0810   -0.4200  -11.9570   O 0  0  0  0  0  0  0  0  0  0  0  0
   30.4470    0.1880  -11.3950   O 0  5  0  0  0  0  0  0  0  0  0  0
   28.7900    1.9300  -11.8790   O 0  5  0  0  0  0  0  0  0  0  0  0
   29.6020    0.4310  -13.7190   O 0  5  0  0  0  0  0  0  0  0  0  0
  1  2  2  0  0  0  0
  1  3  1  0  0  0  0
  1  4  1  0  0  0  0
  1  5  1  0  0  0  0
M  CHG  3   3  -1   4  -1   5  -1
M  END
>  <InstanceId>
3DMZ_PO4_A_901

>  <ChemCompId>
PO4

>  <PdbId>
3DMZ

>  <ChainId>
A

>  <ResidueNumber>
901

>  <InsertionCode>


>  <Model>
1

>  <AltIds>


>  <MissingHeavyAtoms>
0

>  <ObservedFormula>
O4 P

>  <Name>
PHOSPHATE ION

>  <SystematicName>
phosphate

>  <Synonyms>


>  <Type>
NON-POLYMER

>  <Formula>
O4 P

>  <MolecularWeight>
94.971

>  <ModifiedDate>
2011-06-04

>  <Parent>


>  <OneLetterCode>


>  <SubcomponentList>


>  <AmbiguousFlag>
N

>  <InChI>
InChI=1S/H3O4P/c1-5(2,3)4/h(H3,1,2,3,4)/p-3

>  <InChIKey>
NBIIXXVUZAFLBC-UHFFFAOYSA-K

>  <SMILES>
[O-]P(=O)([O-])[O-]

$$$$
3DN0_PO4_A_901
  RCSB PDB12061708203D
Coordinates from PDB:3DN0:A:901 Model:1 without hydrogens
  5  4  0  0  0  0            999 V2000
   29.0290    0.5680  -12.1230   P 0  0  0  0  0  0  0  0  0  0  0  0
   27.9230   -0.4290  -11.8110   O 0  0  0  0  0  0  0  0  0  0  0  0
   30.2960    0.2660  -11.3460   O 0  5  0  0  0  0  0  0  0  0  0  0
   28.5550    1.9580  -11.7070   O 0  5  0  0  0  0  0  0  0  0  0  0
   29.3090    0.5020  -13.6170   O 0  5  0  0  0  0  0  0  0  0  0  0
  1  2  2  0  0  0  0
  1  3  1  0  0  0  0
  1  4  1  0  0  0  0
  1  5  1  0  0  0  0
M  CHG  3   3  -1   4  -1   5  -1
M  END
>  <InstanceId>
3DN0_PO4_A_901

>  <ChemCompId>
PO4

>  <PdbId>
3DN0

>  <ChainId>
A

>  <ResidueNumber>
901

>  <InsertionCode>


>  <Model>
1

>  <AltIds>


>  <MissingHeavyAtoms>
0

>  <ObservedFormula>
O4 P

>  <Name>
PHOSPHATE ION

>  <SystematicName>
phosphate

>  <Synonyms>


>  <Type>
NON-POLYMER

>  <Formula>
O4 P

>  <MolecularWeight>
94.971

>  <ModifiedDate>
2011-06-04

>  <Parent>


>  <OneLetterCode>


>  <SubcomponentList>


>  <AmbiguousFlag>
N

>  <InChI>
InChI=1S/H3O4P/c1-5(2,3)4/h(H3,1,2,3,4)/p-3

>  <InChIKey>
NBIIXXVUZAFLBC-UHFFFAOYSA-K

>  <SMILES>
[O-]P(=O)([O-])[O-]

$$$$
3DN1_PO4_A_901
  RCSB PDB12061708203D
Coordinates from PDB:3DN1:A:901 Model:1 without hydrogens
  5  4  0  0  0  0            999 V2000
   29.2280    0.5680  -12.1890   P 0  0  0  0  0  0  0  0  0  0  0  0
   28.1150   -0.4290  -11.9150   O 0  0  0  0  0  0  0  0  0  0  0  0
   30.4660    0.2650  -11.3740   O 0  5  0  0  0  0  0  0  0  0  0  0
   28.7340    1.9530  -11.7830   O 0  5  0  0  0  0  0  0  0  0  0  0
   29.5440    0.5210  -13.6760   O 0  5  0  0  0  0  0  0  0  0  0  0
  1  2  2  0  0  0  0
  1  3  1  0  0  0  0
  1  4  1  0  0  0  0
  1  5  1  0  0  0  0
M  CHG  3   3  -1   4  -1   5  -1
M  END
>  <InstanceId>
3DN1_PO4_A_901

>  <ChemCompId>
PO4

>  <PdbId>
3DN1

>  <ChainId>
A

>  <ResidueNumber>
901

>  <InsertionCode>


>  <Model>
1

>  <AltIds>


>  <MissingHeavyAtoms>
0

>  <ObservedFormula>
O4 P

>  <Name>
PHOSPHATE ION

>  <SystematicName>
phosphate

>  <Synonyms>


>  <Type>
NON-POLYMER

>  <Formula>
O4 P

>  <MolecularWeight>
94.971

>  <ModifiedDate>
2011-06-04

>  <Parent>


>  <OneLetterCode>


>  <SubcomponentList>


>  <AmbiguousFlag>
N

>  <InChI>
InChI=1S/H3O4P/c1-5(2,3)4/h(H3,1,2,3,4)/p-3

>  <InChIKey>
NBIIXXVUZAFLBC-UHFFFAOYSA-K

>  <SMILES>
[O-]P(=O)([O-])[O-]

$$$$
3DN2_PO4_A_901
  RCSB PDB12061708203D
Coordinates from PDB:3DN2:A:901 Model:1 without hydrogens
  5  4  0  0  0  0            999 V2000
   29.1350    0.6260  -12.2040   P 0  0  0  0  0  0  0  0  0  0  0  0
   28.0110   -0.3610  -11.9350   O 0  0  0  0  0  0  0  0  0  0  0  0
   30.3660    0.2990  -11.3960   O 0  5  0  0  0  0  0  0  0  0  0  0
   28.6770    2.0090  -11.7750   O 0  5  0  0  0  0  0  0  0  0  0  0
   29.4480    0.5910  -13.6920   O 0  5  0  0  0  0  0  0  0  0  0  0
  1  2  2  0  0  0  0
  1  3  1  0  0  0  0
  1  4  1  0  0  0  0
  1  5  1  0  0  0  0
M  CHG  3   3  -1   4  -1   5  -1
M  END
>  <InstanceId>
3DN2_PO4_A_901

>  <ChemCompId>
PO4

>  <PdbId>
3DN2

>  <ChainId>
A

>  <ResidueNumber>
901

>  <InsertionCode>


>  <Model>
1

>  <AltIds>


>  <MissingHeavyAtoms>
0

>  <ObservedFormula>
O4 P

>  <Name>
PHOSPHATE ION

>  <SystematicName>
phosphate

>  <Synonyms>


>  <Type>
NON-POLYMER

>  <Formula>
O4 P

>  <MolecularWeight>
94.971

>  <ModifiedDate>
2011-06-04

>  <Parent>


>  <OneLetterCode>


>  <SubcomponentList>


>  <AmbiguousFlag>
N

>  <InChI>
InChI=1S/H3O4P/c1-5(2,3)4/h(H3,1,2,3,4)/p-3

>  <InChIKey>
NBIIXXVUZAFLBC-UHFFFAOYSA-K

>  <SMILES>
[O-]P(=O)([O-])[O-]

$$$$
3DN3_PO4_A_901
  RCSB PDB12061708203D
Coordinates from PDB:3DN3:A:901 Model:1 without hydrogens
  5  4  0  0  0  0            999 V2000
   29.2390    0.4380  -12.2090   P 0  0  0  0  0  0  0  0  0  0  0  0
   28.1120   -0.5330  -11.9300   O 0  0  0  0  0  0  0  0  0  0  0  0
   30.4800    0.0900  -11.4180   O 0  5  0  0  0  0  0  0  0  0  0  0
   28.7960    1.8200  -11.7700   O 0  5  0  0  0  0  0  0  0  0  0  0
   29.5400    0.4180  -13.6980   O 0  5  0  0  0  0  0  0  0  0  0  0
  1  2  2  0  0  0  0
  1  3  1  0  0  0  0
  1  4  1  0  0  0  0
  1  5  1  0  0  0  0
M  CHG  3   3  -1   4  -1   5  -1
M  END
>  <InstanceId>
3DN3_PO4_A_901

>  <ChemCompId>
PO4

>  <PdbId>
3DN3

>  <ChainId>
A

>  <ResidueNumber>
901

>  <InsertionCode>


>  <Model>
1

>  <AltIds>


>  <MissingHeavyAtoms>
0

>  <ObservedFormula>
O4 P

>  <Name>
PHOSPHATE ION

>  <SystematicName>
phosphate

>  <Synonyms>


>  <Type>
NON-POLYMER

>  <Formula>
O4 P

>  <MolecularWeight>
94.971

>  <ModifiedDate>
2011-06-04

>  <Parent>


>  <OneLetterCode>


>  <SubcomponentList>


>  <AmbiguousFlag>
N

>  <InChI>
InChI=1S/H3O4P/c1-5(2,3)4/h(H3,1,2,3,4)/p-3

>  <InChIKey>
NBIIXXVUZAFLBC-UHFFFAOYSA-K

>  <SMILES>
[O-]P(=O)([O-])[O-]

$$$$
3DN4_PO4_A_901
  RCSB PDB12061708203D
Coordinates from PDB:3DN4:A:901 Model:1 without hydrogens
  5  4  0  0  0  0            999 V2000
   29.2860    0.4710  -12.1710   P 0  0  0  0  0  0  0  0  0  0  0  0
   28.1620   -0.5110  -11.8850   O 0  0  0  0  0  0  0  0  0  0  0  0
   30.5130    0.1720  -11.3350   O 0  5  0  0  0  0  0  0  0  0  0  0
   28.7990    1.8590  -11.7920   O 0  5  0  0  0  0  0  0  0  0  0  0
   29.6110    0.3890  -13.6530   O 0  5  0  0  0  0  0  0  0  0  0  0
  1  2  2  0  0  0  0
  1  3  1  0  0  0  0
  1  4  1  0  0  0  0
  1  5  1  0  0  0  0
M  CHG  3   3  -1   4  -1   5  -1
M  END
>  <InstanceId>
3DN4_PO4_A_901

>  <ChemCompId>
PO4

>  <PdbId>
3DN4

>  <ChainId>
A

>  <ResidueNumber>
901

>  <InsertionCode>


>  <Model>
1

>  <AltIds>


>  <MissingHeavyAtoms>
0

>  <ObservedFormula>
O4 P

>  <Name>
PHOSPHATE ION

>  <SystematicName>
phosphate

>  <Synonyms>


>  <Type>
NON-POLYMER

>  <Formula>
O4 P

>  <MolecularWeight>
94.971

>  <ModifiedDate>
2011-06-04

>  <Parent>


>  <OneLetterCode>


>  <SubcomponentList>


>  <AmbiguousFlag>
N

>  <InChI>
InChI=1S/H3O4P/c1-5(2,3)4/h(H3,1,2,3,4)/p-3

>  <InChIKey>
NBIIXXVUZAFLBC-UHFFFAOYSA-K

>  <SMILES>
[O-]P(=O)([O-])[O-]

$$$$
3DN6_PO4_A_901
  RCSB PDB12061708203D
Coordinates from PDB:3DN6:A:901 Model:1 without hydrogens
  5  4  0  0  0  0            999 V2000
   29.3060    0.6620  -12.3120   P 0  0  0  0  0  0  0  0  0  0  0  0
   28.1830   -0.3180  -12.0280   O 0  0  0  0  0  0  0  0  0  0  0  0
   30.5310    0.3400  -11.4910   O 0  5  0  0  0  0  0  0  0  0  0  0
   28.8510    2.0510  -11.9070   O 0  5  0  0  0  0  0  0  0  0  0  0
   29.6130    0.6110  -13.8000   O 0  5  0  0  0  0  0  0  0  0  0  0
  1  2  2  0  0  0  0
  1  3  1  0  0  0  0
  1  4  1  0  0  0  0
  1  5  1  0  0  0  0
M  CHG  3   3  -1   4  -1   5  -1
M  END
>  <InstanceId>
3DN6_PO4_A_901

>  <ChemCompId>
PO4

>  <PdbId>
3DN6

>  <ChainId>
A

>  <ResidueNumber>
901

>  <InsertionCode>


>  <Model>
1

>  <AltIds>


>  <MissingHeavyAtoms>
0

>  <ObservedFormula>
O4 P

>  <Name>
PHOSPHATE ION

>  <SystematicName>
phosphate

>  <Synonyms>


>  <Type>
NON-POLYMER

>  <Formula>
O4 P

>  <MolecularWeight>
94.971

>  <ModifiedDate>
2011-06-04

>  <Parent>


>  <OneLetterCode>


>  <SubcomponentList>


>  <AmbiguousFlag>
N

>  <InChI>
InChI=1S/H3O4P/c1-5(2,3)4/h(H3,1,2,3,4)/p-3

>  <InChIKey>
NBIIXXVUZAFLBC-UHFFFAOYSA-K

>  <SMILES>
[O-]P(=O)([O-])[O-]

$$$$
3DN8_PO4_A_901
  RCSB PDB12061708203D
Coordinates from PDB:3DN8:A:901 Model:1 without hydrogens
  5  4  0  0  0  0            999 V2000
   29.2460    0.5100  -12.1950   P 0  0  0  0  0  0  0  0  0  0  0  0
   28.1240   -0.4690  -11.9100   O 0  0  0  0  0  0  0  0  0  0  0  0
   30.4880    0.1790  -11.3970   O 0  5  0  0  0  0  0  0  0  0  0  0
   28.7560    1.8810  -11.7600   O 0  5  0  0  0  0  0  0  0  0  0  0
   29.5650    0.4960  -13.6810   O 0  5  0  0  0  0  0  0  0  0  0  0
  1  2  2  0  0  0  0
  1  3  1  0  0  0  0
  1  4  1  0  0  0  0
  1  5  1  0  0  0  0
M  CHG  3   3  -1   4  -1   5  -1
M  END
>  <InstanceId>
3DN8_PO4_A_901

>  <ChemCompId>
PO4

>  <PdbId>
3DN8

>  <ChainId>
A

>  <ResidueNumber>
901

>  <InsertionCode>


>  <Model>
1

>  <AltIds>


>  <MissingHeavyAtoms>
0

>  <ObservedFormula>
O4 P

>  <Name>
PHOSPHATE ION

>  <SystematicName>
phosphate

>  <Synonyms>


>  <Type>
NON-POLYMER

>  <Formula>
O4 P

>  <MolecularWeight>
94.971

>  <ModifiedDate>
2011-06-04

>  <Parent>


>  <OneLetterCode>


>  <SubcomponentList>


>  <AmbiguousFlag>
N

>  <InChI>
InChI=1S/H3O4P/c1-5(2,3)4/h(H3,1,2,3,4)/p-3

>  <InChIKey>
NBIIXXVUZAFLBC-UHFFFAOYSA-K

>  <SMILES>
[O-]P(=O)([O-])[O-]

$$$$
3DNA_PO4_A_901
  RCSB PDB12061708203D
Coordinates from PDB:3DNA:A:901 Model:1 without hydrogens
  5  4  0  0  0  0            999 V2000
   29.2060    0.2380  -12.0690   P 0  0  0  0  0  0  0  0  0  0  0  0
   28.0960   -0.7490  -11.7730   O 0  0  0  0  0  0  0  0  0  0  0  0
   30.4470   -0.0720  -11.2590   O 0  5  0  0  0  0  0  0  0  0  0  0
   28.7080    1.6110  -11.6380   O 0  5  0  0  0  0  0  0  0  0  0  0
   29.5160    0.2040  -13.5540   O 0  5  0  0  0  0  0  0  0  0  0  0
  1  2  2  0  0  0  0
  1  3  1  0  0  0  0
  1  4  1  0  0  0  0
  1  5  1  0  0  0  0
M  CHG  3   3  -1   4  -1   5  -1
M  END
>  <InstanceId>
3DNA_PO4_A_901

>  <ChemCompId>
PO4

>  <PdbId>
3DNA

>  <ChainId>
A

>  <ResidueNumber>
901

>  <InsertionCode>


>  <Model>
1

>  <AltIds>


>  <MissingHeavyAtoms>
0

>  <ObservedFormula>
O4 P

>  <Name>
PHOSPHATE ION

>  <SystematicName>
phosphate

>  <Synonyms>


>  <Type>
NON-POLYMER

>  <Formula>
O4 P

>  <MolecularWeight>
94.971

>  <ModifiedDate>
2011-06-04

>  <Parent>


>  <OneLetterCode>


>  <SubcomponentList>


>  <AmbiguousFlag>
N

>  <InChI>
InChI=1S/H3O4P/c1-5(2,3)4/h(H3,1,2,3,4)/p-3

>  <InChIKey>
NBIIXXVUZAFLBC-UHFFFAOYSA-K

>  <SMILES>
[O-]P(=O)([O-])[O-]

$$$$
3HH3_PO4_A_167
  RCSB PDB12061708533D
Coordinates from PDB:3HH3:A:167 Model:1 without hydrogens
  5  4  0  0  0  0            999 V2000
   45.9030   25.5050   12.2150   P 0  0  0  0  0  0  0  0  0  0  0  0
   45.5900   24.0600   11.8770   O 0  0  0  0  0  0  0  0  0  0  0  0
   45.6380   25.7660   13.7020   O 0  5  0  0  0  0  0  0  0  0  0  0
   45.0780   26.4490   11.3630   O 0  5  0  0  0  0  0  0  0  0  0  0
   47.3310   25.8060   11.7760   O 0  5  0  0  0  0  0  0  0  0  0  0
  1  2  2  0  0  0  0
  1  3  1  0  0  0  0
  1  4  1  0  0  0  0
  1  5  1  0  0  0  0
M  CHG  3   3  -1   4  -1   5  -1
M  END
>  <InstanceId>
3HH3_PO4_A_167

>  <ChemCompId>
PO4

>  <PdbId>
3HH3

>  <ChainId>
A

>  <ResidueNumber>
167

>  <InsertionCode>


>  <Model>
1

>  <AltIds>


>  <MissingHeavyAtoms>
0

>  <ObservedFormula>
O4 P

>  <Name>
PHOSPHATE ION

>  <SystematicName>
phosphate

>  <Synonyms>


>  <Type>
NON-POLYMER

>  <Formula>
O4 P

>  <MolecularWeight>
94.971

>  <ModifiedDate>
2011-06-04

>  <Parent>


>  <OneLetterCode>


>  <SubcomponentList>


>  <AmbiguousFlag>
N

>  <InChI>
InChI=1S/H3O4P/c1-5(2,3)4/h(H3,1,2,3,4)/p-3

>  <InChIKey>
NBIIXXVUZAFLBC-UHFFFAOYSA-K

>  <SMILES>
[O-]P(=O)([O-])[O-]

$$$$
3HH4_PO4_A_167
  RCSB PDB12061708533D
Coordinates from PDB:3HH4:A:167 Model:1 without hydrogens
  5  4  0  0  0  0            999 V2000
   45.9950   25.5520   12.1440   P 0  0  0  0  0  0  0  0  0  0  0  0
   45.6630   24.0950   11.8470   O 0  0  0  0  0  0  0  0  0  0  0  0
   45.7430   25.8100   13.6300   O 0  5  0  0  0  0  0  0  0  0  0  0
   45.1490   26.5350   11.3410   O 0  5  0  0  0  0  0  0  0  0  0  0
   47.4380   25.8640   11.7060   O 0  5  0  0  0  0  0  0  0  0  0  0
  1  2  2  0  0  0  0
  1  3  1  0  0  0  0
  1  4  1  0  0  0  0
  1  5  1  0  0  0  0
M  CHG  3   3  -1   4  -1   5  -1
M  END
>  <InstanceId>
3HH4_PO4_A_167

>  <ChemCompId>
PO4

>  <PdbId>
3HH4

>  <ChainId>
A

>  <ResidueNumber>
167

>  <InsertionCode>


>  <Model>
1

>  <AltIds>


>  <MissingHeavyAtoms>
0

>  <ObservedFormula>
O4 P

>  <Name>
PHOSPHATE ION

>  <SystematicName>
phosphate

>  <Synonyms>


>  <Type>
NON-POLYMER

>  <Formula>
O4 P

>  <MolecularWeight>
94.971

>  <ModifiedDate>
2011-06-04

>  <Parent>


>  <OneLetterCode>


>  <SubcomponentList>


>  <AmbiguousFlag>
N

>  <InChI>
InChI=1S/H3O4P/c1-5(2,3)4/h(H3,1,2,3,4)/p-3

>  <InChIKey>
NBIIXXVUZAFLBC-UHFFFAOYSA-K

>  <SMILES>
[O-]P(=O)([O-])[O-]

$$$$
3HH5_PO4_A_167
  RCSB PDB12061708533D
Coordinates from PDB:3HH5:A:167 Model:1 without hydrogens
  5  4  0  0  0  0            999 V2000
   45.9530   25.4560   12.2050   P 0  0  0  0  0  0  0  0  0  0  0  0
   45.6550   23.9920   11.8930   O 0  0  0  0  0  0  0  0  0  0  0  0
   45.6870   25.7000   13.7000   O 0  5  0  0  0  0  0  0  0  0  0  0
   45.1320   26.4160   11.3620   O 0  5  0  0  0  0  0  0  0  0  0  0
   47.3910   25.7660   11.7780   O 0  5  0  0  0  0  0  0  0  0  0  0
  1  2  2  0  0  0  0
  1  3  1  0  0  0  0
  1  4  1  0  0  0  0
  1  5  1  0  0  0  0
M  CHG  3   3  -1   4  -1   5  -1
M  END
>  <InstanceId>
3HH5_PO4_A_167

>  <ChemCompId>
PO4

>  <PdbId>
3HH5

>  <ChainId>
A

>  <ResidueNumber>
167

>  <InsertionCode>


>  <Model>
1

>  <AltIds>


>  <MissingHeavyAtoms>
0

>  <ObservedFormula>
O4 P

>  <Name>
PHOSPHATE ION

>  <SystematicName>
phosphate

>  <Synonyms>


>  <Type>
NON-POLYMER

>  <Formula>
O4 P

>  <MolecularWeight>
94.971

>  <ModifiedDate>
2011-06-04

>  <Parent>


>  <OneLetterCode>


>  <SubcomponentList>


>  <AmbiguousFlag>
N

>  <InChI>
InChI=1S/H3O4P/c1-5(2,3)4/h(H3,1,2,3,4)/p-3

>  <InChIKey>
NBIIXXVUZAFLBC-UHFFFAOYSA-K

>  <SMILES>
[O-]P(=O)([O-])[O-]

$$$$
3HH6_PO4_A_167
  RCSB PDB12061708533D
Coordinates from PDB:3HH6:A:167 Model:1 without hydrogens
  5  4  0  0  0  0            999 V2000
   45.7980   25.5210   12.1880   P 0  0  0  0  0  0  0  0  0  0  0  0
   44.9730   26.5190   11.3870   O 0  0  0  0  0  0  0  0  0  0  0  0
   45.5640   25.7490   13.6780   O 0  5  0  0  0  0  0  0  0  0  0  0
   45.5150   24.0650   11.8550   O 0  5  0  0  0  0  0  0  0  0  0  0
   47.2140   25.8460   11.7690   O 0  5  0  0  0  0  0  0  0  0  0  0
  1  2  2  0  0  0  0
  1  3  1  0  0  0  0
  1  4  1  0  0  0  0
  1  5  1  0  0  0  0
M  CHG  3   3  -1   4  -1   5  -1
M  END
>  <InstanceId>
3HH6_PO4_A_167

>  <ChemCompId>
PO4

>  <PdbId>
3HH6

>  <ChainId>
A

>  <ResidueNumber>
167

>  <InsertionCode>


>  <Model>
1

>  <AltIds>


>  <MissingHeavyAtoms>
0

>  <ObservedFormula>
O4 P

>  <Name>
PHOSPHATE ION

>  <SystematicName>
phosphate

>  <Synonyms>


>  <Type>
NON-POLYMER

>  <Formula>
O4 P

>  <MolecularWeight>
94.971

>  <ModifiedDate>
2011-06-04

>  <Parent>


>  <OneLetterCode>


>  <SubcomponentList>


>  <AmbiguousFlag>
N

>  <InChI>
InChI=1S/H3O4P/c1-5(2,3)4/h(H3,1,2,3,4)/p-3

>  <InChIKey>
NBIIXXVUZAFLBC-UHFFFAOYSA-K

>  <SMILES>
[O-]P(=O)([O-])[O-]

$$$$
3HT6_PO4_A_165
  RCSB PDB12061708563D
Coordinates from PDB:3HT6:A:165 Model:1 without hydrogens
  5  4  0  0  0  0            999 V2000
  -30.7780    0.0940   -4.1610   P 0  0  0  0  0  0  0  0  0  0  0  0
  -29.5240    0.4030   -4.9220   O 0  0  0  0  0  0  0  0  0  0  0  0
  -31.9230    1.0240   -4.5830   O 0  5  0  0  0  0  0  0  0  0  0  0
  -31.2860   -1.2970   -4.5070   O 0  5  0  0  0  0  0  0  0  0  0  0
  -30.5460    0.2470   -2.6550   O 0  5  0  0  0  0  0  0  0  0  0  0
  1  2  2  0  0  0  0
  1  3  1  0  0  0  0
  1  4  1  0  0  0  0
  1  5  1  0  0  0  0
M  CHG  3   3  -1   4  -1   5  -1
M  END
>  <InstanceId>
3HT6_PO4_A_165

>  <ChemCompId>
PO4

>  <PdbId>
3HT6

>  <ChainId>
A

>  <ResidueNumber>
165

>  <InsertionCode>


>  <Model>
1

>  <AltIds>


>  <MissingHeavyAtoms>
0

>  <ObservedFormula>
O4 P

>  <Name>
PHOSPHATE ION

>  <SystematicName>
phosphate

>  <Synonyms>


>  <Type>
NON-POLYMER

>  <Formula>
O4 P

>  <MolecularWeight>
94.971

>  <ModifiedDate>
2011-06-04

>  <Parent>


>  <OneLetterCode>


>  <SubcomponentList>


>  <AmbiguousFlag>
N

>  <InChI>
InChI=1S/H3O4P/c1-5(2,3)4/h(H3,1,2,3,4)/p-3

>  <InChIKey>
NBIIXXVUZAFLBC-UHFFFAOYSA-K

>  <SMILES>
[O-]P(=O)([O-])[O-]

$$$$
3HT7_PO4_A_165
  RCSB PDB12061708563D
Coordinates from PDB:3HT7:A:165 Model:1 without hydrogens
  5  4  0  0  0  0            999 V2000
   30.8150    0.0820   -4.0090   P 0  0  0  0  0  0  0  0  0  0  0  0
   31.3500    1.4650   -4.3710   O 0  0  0  0  0  0  0  0  0  0  0  0
   29.5540   -0.1960   -4.7770   O 0  5  0  0  0  0  0  0  0  0  0  0
   31.9590   -0.8830   -4.3480   O 0  5  0  0  0  0  0  0  0  0  0  0
   30.5630   -0.0630   -2.5010   O 0  5  0  0  0  0  0  0  0  0  0  0
  1  2  2  0  0  0  0
  1  3  1  0  0  0  0
  1  4  1  0  0  0  0
  1  5  1  0  0  0  0
M  CHG  3   3  -1   4  -1   5  -1
M  END
>  <InstanceId>
3HT7_PO4_A_165

>  <ChemCompId>
PO4

>  <PdbId>
3HT7

>  <ChainId>
A

>  <ResidueNumber>
165

>  <InsertionCode>


>  <Model>
1

>  <AltIds>


>  <MissingHeavyAtoms>
0

>  <ObservedFormula>
O4 P

>  <Name>
PHOSPHATE ION

>  <SystematicName>
phosphate

>  <Synonyms>


>  <Type>
NON-POLYMER

>  <Formula>
O4 P

>  <MolecularWeight>
94.971

>  <ModifiedDate>
2011-06-04

>  <Parent>


>  <OneLetterCode>


>  <SubcomponentList>


>  <AmbiguousFlag>
N

>  <InChI>
InChI=1S/H3O4P/c1-5(2,3)4/h(H3,1,2,3,4)/p-3

>  <InChIKey>
NBIIXXVUZAFLBC-UHFFFAOYSA-K

>  <SMILES>
[O-]P(=O)([O-])[O-]

$$$$
3HT8_PO4_A_165
  RCSB PDB12061708563D
Coordinates from PDB:3HT8:A:165 Model:1 without hydrogens
  5  4  0  0  0  0            999 V2000
   29.5070   -0.0380  -12.2030   P 0  0  0  0  0  0  0  0  0  0  0  0
   29.7190   -0.1530  -13.7090   O 0  0  0  0  0  0  0  0  0  0  0  0
   29.0030    1.3310  -11.8050   O 0  5  0  0  0  0  0  0  0  0  0  0
   28.3450   -0.9670  -11.8090   O 0  5  0  0  0  0  0  0  0  0  0  0
   30.7570   -0.3580  -11.4430   O 0  5  0  0  0  0  0  0  0  0  0  0
  1  2  2  0  0  0  0
  1  3  1  0  0  0  0
  1  4  1  0  0  0  0
  1  5  1  0  0  0  0
M  CHG  3   3  -1   4  -1   5  -1
M  END
>  <InstanceId>
3HT8_PO4_A_165

>  <ChemCompId>
PO4

>  <PdbId>
3HT8

>  <ChainId>
A

>  <ResidueNumber>
165

>  <InsertionCode>


>  <Model>
1

>  <AltIds>


>  <MissingHeavyAtoms>
0

>  <ObservedFormula>
O4 P

>  <Name>
PHOSPHATE ION

>  <SystematicName>
phosphate

>  <Synonyms>


>  <Type>
NON-POLYMER

>  <Formula>
O4 P

>  <MolecularWeight>
94.971

>  <ModifiedDate>
2011-06-04

>  <Parent>


>  <OneLetterCode>


>  <SubcomponentList>


>  <AmbiguousFlag>
N

>  <InChI>
InChI=1S/H3O4P/c1-5(2,3)4/h(H3,1,2,3,4)/p-3

>  <InChIKey>
NBIIXXVUZAFLBC-UHFFFAOYSA-K

>  <SMILES>
[O-]P(=O)([O-])[O-]

$$$$
3HT9_PO4_A_165
  RCSB PDB12061708563D
Coordinates from PDB:3HT9:A:165 Model:1 without hydrogens
  5  4  0  0  0  0            999 V2000
  -44.6240   26.6410  -28.1570   P 0  0  0  0  0  0  0  0  0  0  0  0
  -43.1880   26.3780  -27.7550   O 0  0  0  0  0  0  0  0  0  0  0  0
  -44.8620   26.4820  -29.6810   O 0  5  0  0  0  0  0  0  0  0  0  0
  -45.5300   25.6710  -27.4330   O 0  5  0  0  0  0  0  0  0  0  0  0
  -44.9500   28.1100  -27.8230   O 0  5  0  0  0  0  0  0  0  0  0  0
  1  2  2  0  0  0  0
  1  3  1  0  0  0  0
  1  4  1  0  0  0  0
  1  5  1  0  0  0  0
M  CHG  3   3  -1   4  -1   5  -1
M  END
>  <InstanceId>
3HT9_PO4_A_165

>  <ChemCompId>
PO4

>  <PdbId>
3HT9

>  <ChainId>
A

>  <ResidueNumber>
165

>  <InsertionCode>


>  <Model>
1

>  <AltIds>


>  <MissingHeavyAtoms>
0

>  <ObservedFormula>
O4 P

>  <Name>
PHOSPHATE ION

>  <SystematicName>
phosphate

>  <Synonyms>


>  <Type>
NON-POLYMER

>  <Formula>
O4 P

>  <MolecularWeight>
94.971

>  <ModifiedDate>
2011-06-04

>  <Parent>


>  <OneLetterCode>


>  <SubcomponentList>


>  <AmbiguousFlag>
N

>  <InChI>
InChI=1S/H3O4P/c1-5(2,3)4/h(H3,1,2,3,4)/p-3

>  <InChIKey>
NBIIXXVUZAFLBC-UHFFFAOYSA-K

>  <SMILES>
[O-]P(=O)([O-])[O-]

$$$$
3HTB_PO4_A_165
  RCSB PDB12061708563D
Coordinates from PDB:3HTB:A:165 Model:1 without hydrogens
  5  4  0  0  0  0            999 V2000
   15.4300  -26.5070   12.0400   P 0  0  0  0  0  0  0  0  0  0  0  0
   16.8990  -26.3590   11.7610   O 0  0  0  0  0  0  0  0  0  0  0  0
   14.5650  -25.5710   11.2810   O 0  5  0  0  0  0  0  0  0  0  0  0
   15.0710  -28.0100   11.8110   O 0  5  0  0  0  0  0  0  0  0  0  0
   15.0420  -26.3180   13.5430   O 0  5  0  0  0  0  0  0  0  0  0  0
  1  2  2  0  0  0  0
  1  3  1  0  0  0  0
  1  4  1  0  0  0  0
  1  5  1  0  0  0  0
M  CHG  3   3  -1   4  -1   5  -1
M  END
>  <InstanceId>
3HTB_PO4_A_165

>  <ChemCompId>
PO4

>  <PdbId>
3HTB

>  <ChainId>
A

>  <ResidueNumber>
165

>  <InsertionCode>


>  <Model>
1

>  <AltIds>


>  <MissingHeavyAtoms>
0

>  <ObservedFormula>
O4 P

>  <Name>
PHOSPHATE ION

>  <SystematicName>
phosphate

>  <Synonyms>


>  <Type>
NON-POLYMER

>  <Formula>
O4 P

>  <MolecularWeight>
94.971

>  <ModifiedDate>
2011-06-04

>  <Parent>


>  <OneLetterCode>


>  <SubcomponentList>


>  <AmbiguousFlag>
N

>  <InChI>
InChI=1S/H3O4P/c1-5(2,3)4/h(H3,1,2,3,4)/p-3

>  <InChIKey>
NBIIXXVUZAFLBC-UHFFFAOYSA-K

>  <SMILES>
[O-]P(=O)([O-])[O-]

$$$$
3HTD_PO4_A_165
  RCSB PDB12061708563D
Coordinates from PDB:3HTD:A:165 Model:1 without hydrogens
  5  4  0  0  0  0            999 V2000
  -30.8720   -0.0810  -12.1700   P 0  0  0  0  0  0  0  0  0  0  0  0
  -30.6110   -0.2170  -13.6620   O 0  0  0  0  0  0  0  0  0  0  0  0
  -31.3290    1.3250  -11.8180   O 0  5  0  0  0  0  0  0  0  0  0  0
  -31.9790   -1.0470  -11.7770   O 0  5  0  0  0  0  0  0  0  0  0  0
  -29.6130   -0.3640  -11.3880   O 0  5  0  0  0  0  0  0  0  0  0  0
  1  2  2  0  0  0  0
  1  3  1  0  0  0  0
  1  4  1  0  0  0  0
  1  5  1  0  0  0  0
M  CHG  3   3  -1   4  -1   5  -1
M  END
>  <InstanceId>
3HTD_PO4_A_165

>  <ChemCompId>
PO4

>  <PdbId>
3HTD

>  <ChainId>
A

>  <ResidueNumber>
165

>  <InsertionCode>


>  <Model>
1

>  <AltIds>


>  <MissingHeavyAtoms>
0

>  <ObservedFormula>
O4 P

>  <Name>
PHOSPHATE ION

>  <SystematicName>
phosphate

>  <Synonyms>


>  <Type>
NON-POLYMER

>  <Formula>
O4 P

>  <MolecularWeight>
94.971

>  <ModifiedDate>
2011-06-04

>  <Parent>


>  <OneLetterCode>


>  <SubcomponentList>


>  <AmbiguousFlag>
N

>  <InChI>
InChI=1S/H3O4P/c1-5(2,3)4/h(H3,1,2,3,4)/p-3

>  <InChIKey>
NBIIXXVUZAFLBC-UHFFFAOYSA-K

>  <SMILES>
[O-]P(=O)([O-])[O-]

$$$$
3HTF_PO4_A_165
  RCSB PDB12061708563D
Coordinates from PDB:3HTF:A:165 Model:1 without hydrogens
  5  4  0  0  0  0            999 V2000
   30.6920   -0.0360  -12.0960   P 0  0  0  0  0  0  0  0  0  0  0  0
   31.8320    0.9250  -11.7370   O 0  0  0  0  0  0  0  0  0  0  0  0
   30.4080    0.0980  -13.5870   O 0  5  0  0  0  0  0  0  0  0  0  0
   31.2030   -1.4180  -11.7450   O 0  5  0  0  0  0  0  0  0  0  0  0
   29.4220    0.2180  -11.3160   O 0  5  0  0  0  0  0  0  0  0  0  0
  1  2  2  0  0  0  0
  1  3  1  0  0  0  0
  1  4  1  0  0  0  0
  1  5  1  0  0  0  0
M  CHG  3   3  -1   4  -1   5  -1
M  END
>  <InstanceId>
3HTF_PO4_A_165

>  <ChemCompId>
PO4

>  <PdbId>
3HTF

>  <ChainId>
A

>  <ResidueNumber>
165

>  <InsertionCode>


>  <Model>
1

>  <AltIds>


>  <MissingHeavyAtoms>
0

>  <ObservedFormula>
O4 P

>  <Name>
PHOSPHATE ION

>  <SystematicName>
phosphate

>  <Synonyms>


>  <Type>
NON-POLYMER

>  <Formula>
O4 P

>  <MolecularWeight>
94.971

>  <ModifiedDate>
2011-06-04

>  <Parent>


>  <OneLetterCode>


>  <SubcomponentList>


>  <AmbiguousFlag>
N

>  <InChI>
InChI=1S/H3O4P/c1-5(2,3)4/h(H3,1,2,3,4)/p-3

>  <InChIKey>
NBIIXXVUZAFLBC-UHFFFAOYSA-K

>  <SMILES>
[O-]P(=O)([O-])[O-]

$$$$
3HTG_PO4_A_165
  RCSB PDB12061708563D
Coordinates from PDB:3HTG:A:165 Model:1 without hydrogens
  5  4  0  0  0  0            999 V2000
   30.8160   -0.3200  -12.2080   P 0  0  0  0  0  0  0  0  0  0  0  0
   31.9040    0.6480  -11.8240   O 0  0  0  0  0  0  0  0  0  0  0  0
   30.6270   -0.2140  -13.7170   O 0  5  0  0  0  0  0  0  0  0  0  0
   31.2830   -1.6900  -11.7980   O 0  5  0  0  0  0  0  0  0  0  0  0
   29.5320   -0.0350  -11.4540   O 0  5  0  0  0  0  0  0  0  0  0  0
  1  2  2  0  0  0  0
  1  3  1  0  0  0  0
  1  4  1  0  0  0  0
  1  5  1  0  0  0  0
M  CHG  3   3  -1   4  -1   5  -1
M  END
>  <InstanceId>
3HTG_PO4_A_165

>  <ChemCompId>
PO4

>  <PdbId>
3HTG

>  <ChainId>
A

>  <ResidueNumber>
165

>  <InsertionCode>


>  <Model>
1

>  <AltIds>


>  <MissingHeavyAtoms>
0

>  <ObservedFormula>
O4 P

>  <Name>
PHOSPHATE ION

>  <SystematicName>
phosphate

>  <Synonyms>


>  <Type>
NON-POLYMER

>  <Formula>
O4 P

>  <MolecularWeight>
94.971

>  <ModifiedDate>
2011-06-04

>  <Parent>


>  <OneLetterCode>


>  <SubcomponentList>


>  <AmbiguousFlag>
N

>  <InChI>
InChI=1S/H3O4P/c1-5(2,3)4/h(H3,1,2,3,4)/p-3

>  <InChIKey>
NBIIXXVUZAFLBC-UHFFFAOYSA-K

>  <SMILES>
[O-]P(=O)([O-])[O-]

$$$$
3HU8_PO4_A_165
  RCSB PDB12061708573D
Coordinates from PDB:3HU8:A:165 Model:1 without hydrogens
  5  4  0  0  0  0            999 V2000
   15.4150  -26.7140   12.0380   P 0  0  0  0  0  0  0  0  0  0  0  0
   16.8470  -26.4550   11.6560   O 0  0  0  0  0  0  0  0  0  0  0  0
   14.5380  -25.7880   11.2550   O 0  5  0  0  0  0  0  0  0  0  0  0
   15.1250  -28.1970   11.7300   O 0  5  0  0  0  0  0  0  0  0  0  0
   15.1630  -26.5580   13.5440   O 0  5  0  0  0  0  0  0  0  0  0  0
  1  2  2  0  0  0  0
  1  3  1  0  0  0  0
  1  4  1  0  0  0  0
  1  5  1  0  0  0  0
M  CHG  3   3  -1   4  -1   5  -1
M  END
>  <InstanceId>
3HU8_PO4_A_165

>  <ChemCompId>
PO4

>  <PdbId>
3HU8

>  <ChainId>
A

>  <ResidueNumber>
165

>  <InsertionCode>


>  <Model>
1

>  <AltIds>


>  <MissingHeavyAtoms>
0

>  <ObservedFormula>
O4 P

>  <Name>
PHOSPHATE ION

>  <SystematicName>
phosphate

>  <Synonyms>


>  <Type>
NON-POLYMER

>  <Formula>
O4 P

>  <MolecularWeight>
94.971

>  <ModifiedDate>
2011-06-04

>  <Parent>


>  <OneLetterCode>


>  <SubcomponentList>


>  <AmbiguousFlag>
N

>  <InChI>
InChI=1S/H3O4P/c1-5(2,3)4/h(H3,1,2,3,4)/p-3

>  <InChIKey>
NBIIXXVUZAFLBC-UHFFFAOYSA-K

>  <SMILES>
[O-]P(=O)([O-])[O-]

$$$$
3HU9_PO4_A_165
  RCSB PDB12061708573D
Coordinates from PDB:3HU9:A:165 Model:1 without hydrogens
  5  4  0  0  0  0            999 V2000
  -45.8120   25.4910   28.3440   P 0  0  0  0  0  0  0  0  0  0  0  0
  -45.3800   26.7350   27.5820   O 0  0  0  0  0  0  0  0  0  0  0  0
  -47.2110   25.0190   27.9510   O 0  5  0  0  0  0  0  0  0  0  0  0
  -44.8400   24.4060   27.9590   O 0  5  0  0  0  0  0  0  0  0  0  0
  -45.7960   25.7640   29.8600   O 0  5  0  0  0  0  0  0  0  0  0  0
  1  2  2  0  0  0  0
  1  3  1  0  0  0  0
  1  4  1  0  0  0  0
  1  5  1  0  0  0  0
M  CHG  3   3  -1   4  -1   5  -1
M  END
>  <InstanceId>
3HU9_PO4_A_165

>  <ChemCompId>
PO4

>  <PdbId>
3HU9

>  <ChainId>
A

>  <ResidueNumber>
165

>  <InsertionCode>


>  <Model>
1

>  <AltIds>


>  <MissingHeavyAtoms>
0

>  <ObservedFormula>
O4 P

>  <Name>
PHOSPHATE ION

>  <SystematicName>
phosphate

>  <Synonyms>


>  <Type>
NON-POLYMER

>  <Formula>
O4 P

>  <MolecularWeight>
94.971

>  <ModifiedDate>
2011-06-04

>  <Parent>


>  <OneLetterCode>


>  <SubcomponentList>


>  <AmbiguousFlag>
N

>  <InChI>
InChI=1S/H3O4P/c1-5(2,3)4/h(H3,1,2,3,4)/p-3

>  <InChIKey>
NBIIXXVUZAFLBC-UHFFFAOYSA-K

>  <SMILES>
[O-]P(=O)([O-])[O-]

$$$$
3HUA_PO4_A_168
  RCSB PDB12061708573D
Coordinates from PDB:3HUA:A:168 Model:1 without hydrogens
  5  4  0  0  0  0            999 V2000
  -29.4470   -0.0870  -12.1900   P 0  0  0  0  0  0  0  0  0  0  0  0
  -28.3490    0.8910  -11.8090   O 0  0  0  0  0  0  0  0  0  0  0  0
  -29.7100    0.0180  -13.6840   O 0  5  0  0  0  0  0  0  0  0  0  0
  -28.9630   -1.4630  -11.8100   O 0  5  0  0  0  0  0  0  0  0  0  0
  -30.7180    0.1880  -11.4230   O 0  5  0  0  0  0  0  0  0  0  0  0
  1  2  2  0  0  0  0
  1  3  1  0  0  0  0
  1  4  1  0  0  0  0
  1  5  1  0  0  0  0
M  CHG  3   3  -1   4  -1   5  -1
M  END
>  <InstanceId>
3HUA_PO4_A_168

>  <ChemCompId>
PO4

>  <PdbId>
3HUA

>  <ChainId>
A

>  <ResidueNumber>
168

>  <InsertionCode>


>  <Model>
1

>  <AltIds>


>  <MissingHeavyAtoms>
0

>  <ObservedFormula>
O4 P

>  <Name>
PHOSPHATE ION

>  <SystematicName>
phosphate

>  <Synonyms>


>  <Type>
NON-POLYMER

>  <Formula>
O4 P

>  <MolecularWeight>
94.971

>  <ModifiedDate>
2011-06-04

>  <Parent>


>  <OneLetterCode>


>  <SubcomponentList>


>  <AmbiguousFlag>
N

>  <InChI>
InChI=1S/H3O4P/c1-5(2,3)4/h(H3,1,2,3,4)/p-3

>  <InChIKey>
NBIIXXVUZAFLBC-UHFFFAOYSA-K

>  <SMILES>
[O-]P(=O)([O-])[O-]

$$$$
3HUK_PO4_A_165
  RCSB PDB12061708573D
Coordinates from PDB:3HUK:A:165 Model:1 without hydrogens
  5  4  0  0  0  0            999 V2000
   14.2910  -25.6120   12.1630   P 0  0  0  0  0  0  0  0  0  0  0  0
   15.1820  -26.5770   11.4160   O 0  0  0  0  0  0  0  0  0  0  0  0
   14.6000  -24.1790   11.7970   O 0  5  0  0  0  0  0  0  0  0  0  0
   12.8640  -25.8970   11.7950   O 0  5  0  0  0  0  0  0  0  0  0  0
   14.4990  -25.7460   13.6540   O 0  5  0  0  0  0  0  0  0  0  0  0
  1  2  2  0  0  0  0
  1  3  1  0  0  0  0
  1  4  1  0  0  0  0
  1  5  1  0  0  0  0
M  CHG  3   3  -1   4  -1   5  -1
M  END
>  <InstanceId>
3HUK_PO4_A_165

>  <ChemCompId>
PO4

>  <PdbId>
3HUK

>  <ChainId>
A

>  <ResidueNumber>
165

>  <InsertionCode>


>  <Model>
1

>  <AltIds>


>  <MissingHeavyAtoms>
0

>  <ObservedFormula>
O4 P

>  <Name>
PHOSPHATE ION

>  <SystematicName>
phosphate

>  <Synonyms>


>  <Type>
NON-POLYMER

>  <Formula>
O4 P

>  <MolecularWeight>
94.971

>  <ModifiedDate>
2011-06-04

>  <Parent>


>  <OneLetterCode>


>  <SubcomponentList>


>  <AmbiguousFlag>
N

>  <InChI>
InChI=1S/H3O4P/c1-5(2,3)4/h(H3,1,2,3,4)/p-3

>  <InChIKey>
NBIIXXVUZAFLBC-UHFFFAOYSA-K

>  <SMILES>
[O-]P(=O)([O-])[O-]

$$$$
3HUQ_PO4_A_163
  RCSB PDB12061708573D
Coordinates from PDB:3HUQ:A:163 Model:1 without hydrogens
  5  4  0  0  0  0            999 V2000
   30.8240    0.1090   -3.9910   P 0  0  0  0  0  0  0  0  0  0  0  0
   29.5320   -0.1160   -4.7250   O 0  0  0  0  0  0  0  0  0  0  0  0
   31.8610   -0.8970   -4.4500   O 0  5  0  0  0  0  0  0  0  0  0  0
   31.3090    1.4800   -4.3680   O 0  5  0  0  0  0  0  0  0  0  0  0
   30.6220    0.0170   -2.4990   O 0  5  0  0  0  0  0  0  0  0  0  0
  1  2  2  0  0  0  0
  1  3  1  0  0  0  0
  1  4  1  0  0  0  0
  1  5  1  0  0  0  0
M  CHG  3   3  -1   4  -1   5  -1
M  END
>  <InstanceId>
3HUQ_PO4_A_163

>  <ChemCompId>
PO4

>  <PdbId>
3HUQ

>  <ChainId>
A

>  <ResidueNumber>
163

>  <InsertionCode>


>  <Model>
1

>  <AltIds>


>  <MissingHeavyAtoms>
0

>  <ObservedFormula>
O4 P

>  <Name>
PHOSPHATE ION

>  <SystematicName>
phosphate

>  <Synonyms>


>  <Type>
NON-POLYMER

>  <Formula>
O4 P

>  <MolecularWeight>
94.971

>  <ModifiedDate>
2011-06-04

>  <Parent>


>  <OneLetterCode>


>  <SubcomponentList>


>  <AmbiguousFlag>
N

>  <InChI>
InChI=1S/H3O4P/c1-5(2,3)4/h(H3,1,2,3,4)/p-3

>  <InChIKey>
NBIIXXVUZAFLBC-UHFFFAOYSA-K

>  <SMILES>
[O-]P(=O)([O-])[O-]

$$$$
1OWY_PRY_A_406
  RCSB PDB12061703363D
Coordinates from PDB:1OWY:A:406 Model:1 without hydrogens
 10 10  0  0  0  0            999 V2000
   27.1170    6.7820    3.3530   C 0  0  0  0  0  0  0  0  0  0  0  0
   27.5120    7.2880    4.5850   C 0  0  0  0  0  0  0  0  0  0  0  0
   26.1920    5.7510    3.2730   C 0  0  0  0  0  0  0  0  0  0  0  0
   27.7210    7.3650    2.0880   C 0  0  0  0  0  0  0  0  0  0  0  0
   26.9380    6.7440    5.7480   C 0  0  0  0  0  0  0  0  0  0  0  0
   28.4630    8.3730    4.5670   N 0  0  0  0  0  0  0  0  0  0  0  0
   25.6580    5.1760    4.4330   C 0  0  0  0  0  0  0  0  0  0  0  0
   26.0230    5.7010    5.6820   C 0  0  0  0  0  0  0  0  0  0  0  0
   26.9930    8.6640    1.6770   C 0  0  0  0  0  0  0  0  0  0  0  0
   27.5660    9.1620    0.3470   C 0  0  0  0  0  0  0  0  0  0  0  0
  1  2  2  0  0  0  0
  1  3  1  0  0  0  0
  1  4  1  0  0  0  0
  2  5  1  0  0  0  0
  2  6  1  0  0  0  0
  3  7  2  0  0  0  0
  4  9  1  0  0  0  0
  5  8  2  0  0  0  0
  7  8  1  0  0  0  0
  9 10  1  0  0  0  0
M  END
>  <InstanceId>
1OWY_PRY_A_406

>  <ChemCompId>
PRY

>  <PdbId>
1OWY

>  <ChainId>
A

>  <ResidueNumber>
406

>  <InsertionCode>


>  <Model>
1

>  <AltIds>


>  <MissingHeavyAtoms>
0

>  <ObservedFormula>
C9 N

>  <Name>
2-PROPYL-ANILINE

>  <SystematicName>
2-propylaniline

>  <Synonyms>


>  <Type>
NON-POLYMER

>  <Formula>
C9 H13 N

>  <MolecularWeight>
135.206

>  <ModifiedDate>
2011-06-04

>  <Parent>


>  <OneLetterCode>


>  <SubcomponentList>


>  <AmbiguousFlag>
N

>  <InChI>
InChI=1S/C9H13N/c1-2-5-8-6-3-4-7-9(8)10/h3-4,6-7H,2,5,10H2,1H3

>  <InChIKey>
WKURVXXDGMYSDP-UHFFFAOYSA-N

>  <SMILES>
CCCc1ccccc1N

$$$$
187L_PXY_A_400
  RCSB PDB12061701563D
Coordinates from PDB:187L:A:400 Model:1 without hydrogens
  8  8  0  0  0  0            999 V2000
   26.6450    6.1410    4.6680   C 0  0  0  0  0  0  0  0  0  0  0  0
   26.7810    5.6710    3.4440   C 0  0  0  0  0  0  0  0  0  0  0  0
   27.2700    6.4720    2.4350   C 0  0  0  0  0  0  0  0  0  0  0  0
   27.5830    7.7750    2.6860   C 0  0  0  0  0  0  0  0  0  0  0  0
   27.4420    8.2660    3.9390   C 0  0  0  0  0  0  0  0  0  0  0  0
   26.9790    7.4340    4.9470   C 0  0  0  0  0  0  0  0  0  0  0  0
   26.1370    5.2260    5.7700   C 0  0  0  0  0  0  0  0  0  0  0  0
   28.1020    8.6640    1.5520   C 0  0  0  0  0  0  0  0  0  0  0  0
  1  2  2  0  0  0  0
  1  6  1  0  0  0  0
  1  7  1  0  0  0  0
  2  3  1  0  0  0  0
  3  4  2  0  0  0  0
  4  5  1  0  0  0  0
  4  8  1  0  0  0  0
  5  6  2  0  0  0  0
M  END
>  <InstanceId>
187L_PXY_A_400

>  <ChemCompId>
PXY

>  <PdbId>
187L

>  <ChainId>
A

>  <ResidueNumber>
400

>  <InsertionCode>


>  <Model>
1

>  <AltIds>


>  <MissingHeavyAtoms>
0

>  <ObservedFormula>
C8

>  <Name>
PARA-XYLENE

>  <SystematicName>
1,4-dimethylbenzene

>  <Synonyms>


>  <Type>
NON-POLYMER

>  <Formula>
C8 H10

>  <MolecularWeight>
106.165

>  <ModifiedDate>
2011-06-04

>  <Parent>


>  <OneLetterCode>


>  <SubcomponentList>


>  <AmbiguousFlag>
N

>  <InChI>
InChI=1S/C8H10/c1-7-3-5-8(2)6-4-7/h3-6H,1-2H3

>  <InChIKey>
URLKBWYHVLBVBO-UHFFFAOYSA-N

>  <SMILES>
Cc1ccc(cc1)C

$$$$
3GUM_PXY_A_501
  RCSB PDB12061708473D
Coordinates from PDB:3GUM:A:501 Model:1 without hydrogens
  8  8  0  0  0  0            999 V2000
    7.6510   -1.2280   -2.4840   C 0  0  0  0  0  0  0  0  0  0  0  0
    7.4130    0.1100   -2.1240   C 0  0  0  0  0  0  0  0  0  0  0  0
    8.5000    0.9880   -1.9900   C 0  0  0  0  0  0  0  0  0  0  0  0
    9.8120    0.5840   -2.2810   C 0  0  0  0  0  0  0  0  0  0  0  0
   10.0370   -0.7260   -2.6570   C 0  0  0  0  0  0  0  0  0  0  0  0
    8.9660   -1.6370   -2.7470   C 0  0  0  0  0  0  0  0  0  0  0  0
    6.5250   -2.2460   -2.5750   C 0  0  0  0  0  0  0  0  0  0  0  0
   10.9990    1.5340   -2.1750   C 0  0  0  0  0  0  0  0  0  0  0  0
  1  2  2  0  0  0  0
  1  6  1  0  0  0  0
  1  7  1  0  0  0  0
  2  3  1  0  0  0  0
  3  4  2  0  0  0  0
  4  5  1  0  0  0  0
  4  8  1  0  0  0  0
  5  6  2  0  0  0  0
M  END
>  <InstanceId>
3GUM_PXY_A_501

>  <ChemCompId>
PXY

>  <PdbId>
3GUM

>  <ChainId>
A

>  <ResidueNumber>
501

>  <InsertionCode>


>  <Model>
1

>  <AltIds>


>  <MissingHeavyAtoms>
0

>  <ObservedFormula>
C8

>  <Name>
PARA-XYLENE

>  <SystematicName>
1,4-dimethylbenzene

>  <Synonyms>


>  <Type>
NON-POLYMER

>  <Formula>
C8 H10

>  <MolecularWeight>
106.165

>  <ModifiedDate>
2011-06-04

>  <Parent>


>  <OneLetterCode>


>  <SubcomponentList>


>  <AmbiguousFlag>
N

>  <InChI>
InChI=1S/C8H10/c1-7-3-5-8(2)6-4-7/h3-6H,1-2H3

>  <InChIKey>
URLKBWYHVLBVBO-UHFFFAOYSA-N

>  <SMILES>
Cc1ccc(cc1)C

$$$$
1NHB_PYJ_A_401
  RCSB PDB12061703243D
Coordinates from PDB:1NHB:A:401 Model:1 without hydrogens
  8  8  0  0  0  0            999 V2000
   28.2490    7.5910    2.2010   C 0  0  0  0  0  0  0  0  0  0  0  0
   27.3350    8.5090    1.4320   C 0  0  0  0  0  0  0  0  0  0  0  0
   27.4640    6.8610    3.2540   C 0  0  0  0  0  0  0  0  0  0  0  0
   27.3680    7.3940    4.5050   C 0  0  0  0  0  0  0  0  0  0  0  0
   26.8830    5.6360    2.9810   C 0  0  0  0  0  0  0  0  0  0  0  0
   26.6440    6.7110    5.5020   C 0  0  0  0  0  0  0  0  0  0  0  0
   26.1200    4.9860    3.9580   C 0  0  0  0  0  0  0  0  0  0  0  0
   25.9860    5.5370    5.2000   C 0  0  0  0  0  0  0  0  0  0  0  0
  1  2  1  0  0  0  0
  1  3  1  0  0  0  0
  3  4  2  0  0  0  0
  3  5  1  0  0  0  0
  4  6  1  0  0  0  0
  5  7  2  0  0  0  0
  6  8  2  0  0  0  0
  7  8  1  0  0  0  0
M  END
>  <InstanceId>
1NHB_PYJ_A_401

>  <ChemCompId>
PYJ

>  <PdbId>
1NHB

>  <ChainId>
A

>  <ResidueNumber>
401

>  <InsertionCode>


>  <Model>
1

>  <AltIds>


>  <MissingHeavyAtoms>
0

>  <ObservedFormula>
C8

>  <Name>
PHENYLETHANE

>  <SystematicName>
ethylbenzene

>  <Synonyms>


>  <Type>
NON-POLYMER

>  <Formula>
C8 H10

>  <MolecularWeight>
106.165

>  <ModifiedDate>
2013-12-20

>  <Parent>


>  <OneLetterCode>


>  <SubcomponentList>


>  <AmbiguousFlag>
N

>  <InChI>
InChI=1S/C8H10/c1-2-8-6-4-3-5-7-8/h3-7H,2H2,1H3

>  <InChIKey>
YNQLUTRBYVCPMQ-UHFFFAOYSA-N

>  <SMILES>
CCc1ccccc1

$$$$
3GUL_PYJ_A_501
  RCSB PDB12061708473D
Coordinates from PDB:3GUL:A:501 Model:1 without hydrogens
  8  8  0  0  0  0            999 V2000
    7.6150   -0.8110   -3.0670   C 0  0  0  0  0  0  0  0  0  0  0  0
    7.5980   -2.2050   -2.4590   C 0  0  0  0  0  0  0  0  0  0  0  0
    8.8600   -0.0200   -2.6880   C 0  0  0  0  0  0  0  0  0  0  0  0
    8.7940    0.9450   -1.6880   C 0  0  0  0  0  0  0  0  0  0  0  0
   10.0780   -0.2700   -3.3420   C 0  0  0  0  0  0  0  0  0  0  0  0
    9.9420    1.6600   -1.3370   C 0  0  0  0  0  0  0  0  0  0  0  0
   11.2320    0.4410   -2.9970   C 0  0  0  0  0  0  0  0  0  0  0  0
   11.1420    1.4200   -1.9990   C 0  0  0  0  0  0  0  0  0  0  0  0
  1  2  1  0  0  0  0
  1  3  1  0  0  0  0
  3  4  2  0  0  0  0
  3  5  1  0  0  0  0
  4  6  1  0  0  0  0
  5  7  2  0  0  0  0
  6  8  2  0  0  0  0
  7  8  1  0  0  0  0
M  END
>  <InstanceId>
3GUL_PYJ_A_501

>  <ChemCompId>
PYJ

>  <PdbId>
3GUL

>  <ChainId>
A

>  <ResidueNumber>
501

>  <InsertionCode>


>  <Model>
1

>  <AltIds>


>  <MissingHeavyAtoms>
0

>  <ObservedFormula>
C8

>  <Name>
PHENYLETHANE

>  <SystematicName>
ethylbenzene

>  <Synonyms>


>  <Type>
NON-POLYMER

>  <Formula>
C8 H10

>  <MolecularWeight>
106.165

>  <ModifiedDate>
2013-12-20

>  <Parent>


>  <OneLetterCode>


>  <SubcomponentList>


>  <AmbiguousFlag>
N

>  <InChI>
InChI=1S/C8H10/c1-2-8-6-4-3-5-7-8/h3-7H,2H2,1H3

>  <InChIKey>
YNQLUTRBYVCPMQ-UHFFFAOYSA-N

>  <SMILES>
CCc1ccccc1

$$$$
3HH6_PYJ_A_168
  RCSB PDB12061708533D
Coordinates from PDB:3HH6:A:168 Model:1 without hydrogens
  8  8  0  0  0  0            999 V2000
   27.7760    8.7290    4.0380   C 0  0  0  0  0  0  0  0  0  0  0  0
   27.0610    9.7300    3.1540   C 0  0  0  0  0  0  0  0  0  0  0  0
   27.1090    7.3720    3.9670   C 0  0  0  0  0  0  0  0  0  0  0  0
   27.3800    6.5130    2.9000   C 0  0  0  0  0  0  0  0  0  0  0  0
   26.2310    6.9710    4.9760   C 0  0  0  0  0  0  0  0  0  0  0  0
   26.7670    5.2600    2.8390   C 0  0  0  0  0  0  0  0  0  0  0  0
   25.6150    5.7210    4.9150   C 0  0  0  0  0  0  0  0  0  0  0  0
   25.8880    4.8660    3.8490   C 0  0  0  0  0  0  0  0  0  0  0  0
  1  2  1  0  0  0  0
  1  3  1  0  0  0  0
  3  4  2  0  0  0  0
  3  5  1  0  0  0  0
  4  6  1  0  0  0  0
  5  7  2  0  0  0  0
  6  8  2  0  0  0  0
  7  8  1  0  0  0  0
M  END
>  <InstanceId>
3HH6_PYJ_A_168

>  <ChemCompId>
PYJ

>  <PdbId>
3HH6

>  <ChainId>
A

>  <ResidueNumber>
168

>  <InsertionCode>


>  <Model>
1

>  <AltIds>


>  <MissingHeavyAtoms>
0

>  <ObservedFormula>
C8

>  <Name>
PHENYLETHANE

>  <SystematicName>
ethylbenzene

>  <Synonyms>


>  <Type>
NON-POLYMER

>  <Formula>
C8 H10

>  <MolecularWeight>
106.165

>  <ModifiedDate>
2013-12-20

>  <Parent>


>  <OneLetterCode>


>  <SubcomponentList>


>  <AmbiguousFlag>
N

>  <InChI>
InChI=1S/C8H10/c1-2-8-6-4-3-5-7-8/h3-7H,2H2,1H3

>  <InChIKey>
YNQLUTRBYVCPMQ-UHFFFAOYSA-N

>  <SMILES>
CCc1ccccc1

$$$$
4W54_PYJ_A_200
  RCSB PDB12061715543D
Coordinates from PDB:4W54:A:200 Model:1 without hydrogens
  8  8  0  0  0  0            999 V2000
   40.0430  -20.5930   14.1830   C 0  0  0  0  0  0  0  0  0  0  0  0
   39.4070  -19.3730   14.8600   C 0  0  0  0  0  0  0  0  0  0  0  0
   40.9300  -20.1910   12.9990   C 0  0  0  0  0  0  0  0  0  0  0  0
   40.3610  -19.8840   11.7690   C 0  0  0  0  0  0  0  0  0  0  0  0
   42.3120  -20.1340   13.1510   C 0  0  0  0  0  0  0  0  0  0  0  0
   41.1680  -19.5210   10.6940   C 0  0  0  0  0  0  0  0  0  0  0  0
   43.1190  -19.7700   12.0780   C 0  0  0  0  0  0  0  0  0  0  0  0
   42.5490  -19.4630   10.8470   C 0  0  0  0  0  0  0  0  0  0  0  0
  1  2  1  0  0  0  0
  1  3  1  0  0  0  0
  3  4  2  0  0  0  0
  3  5  1  0  0  0  0
  4  6  1  0  0  0  0
  5  7  2  0  0  0  0
  6  8  2  0  0  0  0
  7  8  1  0  0  0  0
M  END
>  <InstanceId>
4W54_PYJ_A_200

>  <ChemCompId>
PYJ

>  <PdbId>
4W54

>  <ChainId>
A

>  <ResidueNumber>
200

>  <InsertionCode>


>  <Model>
1

>  <AltIds>


>  <MissingHeavyAtoms>
0

>  <ObservedFormula>
C8

>  <Name>
PHENYLETHANE

>  <SystematicName>
ethylbenzene

>  <Synonyms>


>  <Type>
NON-POLYMER

>  <Formula>
C8 H10

>  <MolecularWeight>
106.165

>  <ModifiedDate>
2013-12-20

>  <Parent>


>  <OneLetterCode>


>  <SubcomponentList>


>  <AmbiguousFlag>
N

>  <InChI>
InChI=1S/C8H10/c1-2-8-6-4-3-5-7-8/h3-7H,2H2,1H3

>  <InChIKey>
YNQLUTRBYVCPMQ-UHFFFAOYSA-N

>  <SMILES>
CCc1ccccc1

$$$$
5JWV_PYJ_A_201
  RCSB PDB12061718313D
Coordinates from PDB:5JWV:A:201 Model:1 without hydrogens
  8  8  0  0  0  0            999 V2000
   36.5490  -23.5320  -12.6120   C 0  0  0  0  0  0  0  0  0  0  0  0
   35.3360  -23.7120  -13.5030   C 0  0  0  0  0  0  0  0  0  0  0  0
   37.2980  -24.8300  -12.3920   C 0  0  0  0  0  0  0  0  0  0  0  0
   37.0790  -25.6020  -11.2610   C 0  0  0  0  0  0  0  0  0  0  0  0
   38.2180  -25.2400  -13.3450   C 0  0  0  0  0  0  0  0  0  0  0  0
   37.7790  -26.7860  -11.0890   C 0  0  0  0  0  0  0  0  0  0  0  0
   38.9200  -26.4230  -13.1700   C 0  0  0  0  0  0  0  0  0  0  0  0
   38.6920  -27.1990  -12.0450   C 0  0  0  0  0  0  0  0  0  0  0  0
  1  2  1  0  0  0  0
  1  3  1  0  0  0  0
  3  4  2  0  0  0  0
  3  5  1  0  0  0  0
  4  6  1  0  0  0  0
  5  7  2  0  0  0  0
  6  8  2  0  0  0  0
  7  8  1  0  0  0  0
M  END
>  <InstanceId>
5JWV_PYJ_A_201

>  <ChemCompId>
PYJ

>  <PdbId>
5JWV

>  <ChainId>
A

>  <ResidueNumber>
201

>  <InsertionCode>


>  <Model>
1

>  <AltIds>


>  <MissingHeavyAtoms>
0

>  <ObservedFormula>
C8

>  <Name>
PHENYLETHANE

>  <SystematicName>
ethylbenzene

>  <Synonyms>


>  <Type>
NON-POLYMER

>  <Formula>
C8 H10

>  <MolecularWeight>
106.165

>  <ModifiedDate>
2013-12-20

>  <Parent>


>  <OneLetterCode>


>  <SubcomponentList>


>  <AmbiguousFlag>
N

>  <InChI>
InChI=1S/C8H10/c1-2-8-6-4-3-5-7-8/h3-7H,2H2,1H3

>  <InChIKey>
YNQLUTRBYVCPMQ-UHFFFAOYSA-N

>  <SMILES>
CCc1ccccc1

$$$$
3GUI_SO4_A_168
  RCSB PDB12061708473D
Coordinates from PDB:3GUI:A:168 Model:1 without hydrogens
  5  4  0  0  0  0            999 V2000
   17.3790  -35.0970   34.1740   S 0  0  0  0  0  0  0  0  0  0  0  0
   16.7040  -34.4690   33.0230   O 0  0  0  0  0  0  0  0  0  0  0  0
   18.8070  -35.2310   33.8280   O 0  0  0  0  0  0  0  0  0  0  0  0
   16.7780  -36.4080   34.4480   O 0  5  0  0  0  0  0  0  0  0  0  0
   17.1990  -34.2780   35.3830   O 0  5  0  0  0  0  0  0  0  0  0  0
  1  2  2  0  0  0  0
  1  3  2  0  0  0  0
  1  4  1  0  0  0  0
  1  5  1  0  0  0  0
M  CHG  2   4  -1   5  -1
M  END
>  <InstanceId>
3GUI_SO4_A_168

>  <ChemCompId>
SO4

>  <PdbId>
3GUI

>  <ChainId>
A

>  <ResidueNumber>
168

>  <InsertionCode>


>  <Model>
1

>  <AltIds>


>  <MissingHeavyAtoms>
0

>  <ObservedFormula>
O4 S

>  <Name>
SULFATE ION

>  <SystematicName>
sulfate

>  <Synonyms>


>  <Type>
NON-POLYMER

>  <Formula>
O4 S

>  <MolecularWeight>
96.063

>  <ModifiedDate>
2011-06-04

>  <Parent>


>  <OneLetterCode>


>  <SubcomponentList>


>  <AmbiguousFlag>
N

>  <InChI>
InChI=1S/H2O4S/c1-5(2,3)4/h(H2,1,2,3,4)/p-2

>  <InChIKey>
QAOWNCQODCNURD-UHFFFAOYSA-L

>  <SMILES>
[O-]S(=O)(=O)[O-]

$$$$
3GUJ_SO4_A_168
  RCSB PDB12061708473D
Coordinates from PDB:3GUJ:A:168 Model:1 without hydrogens
  5  4  0  0  0  0            999 V2000
   17.3870  -35.1140   34.3400   S 0  0  0  0  0  0  0  0  0  0  0  0
   16.5720  -34.4540   33.3200   O 0  0  0  0  0  0  0  0  0  0  0  0
   18.7680  -35.2300   33.8610   O 0  0  0  0  0  0  0  0  0  0  0  0
   16.8280  -36.4340   34.6280   O 0  5  0  0  0  0  0  0  0  0  0  0
   17.3670  -34.3360   35.5770   O 0  5  0  0  0  0  0  0  0  0  0  0
  1  2  2  0  0  0  0
  1  3  2  0  0  0  0
  1  4  1  0  0  0  0
  1  5  1  0  0  0  0
M  CHG  2   4  -1   5  -1
M  END
>  <InstanceId>
3GUJ_SO4_A_168

>  <ChemCompId>
SO4

>  <PdbId>
3GUJ

>  <ChainId>
A

>  <ResidueNumber>
168

>  <InsertionCode>


>  <Model>
1

>  <AltIds>


>  <MissingHeavyAtoms>
0

>  <ObservedFormula>
O4 S

>  <Name>
SULFATE ION

>  <SystematicName>
sulfate

>  <Synonyms>


>  <Type>
NON-POLYMER

>  <Formula>
O4 S

>  <MolecularWeight>
96.063

>  <ModifiedDate>
2011-06-04

>  <Parent>


>  <OneLetterCode>


>  <SubcomponentList>


>  <AmbiguousFlag>
N

>  <InChI>
InChI=1S/H2O4S/c1-5(2,3)4/h(H2,1,2,3,4)/p-2

>  <InChIKey>
QAOWNCQODCNURD-UHFFFAOYSA-L

>  <SMILES>
[O-]S(=O)(=O)[O-]

$$$$
4E97_SO4_A_203
  RCSB PDB12061712213D
Coordinates from PDB:4E97:A:203 Model:1 without hydrogens
  5  4  0  0  0  0            999 V2000
   10.4180   24.2190   26.5120   S 0  0  0  0  0  0  0  0  0  0  0  0
   11.5530   24.1310   25.5980   O 0  0  0  0  0  0  0  0  0  0  0  0
    9.2860   24.8500   25.8250   O 0  0  0  0  0  0  0  0  0  0  0  0
   10.0000   22.8930   26.8890   O 0  5  0  0  0  0  0  0  0  0  0  0
   10.6260   24.9920   27.7310   O 0  5  0  0  0  0  0  0  0  0  0  0
  1  2  2  0  0  0  0
  1  3  2  0  0  0  0
  1  4  1  0  0  0  0
  1  5  1  0  0  0  0
M  CHG  2   4  -1   5  -1
M  END
>  <InstanceId>
4E97_SO4_A_203

>  <ChemCompId>
SO4

>  <PdbId>
4E97

>  <ChainId>
A

>  <ResidueNumber>
203

>  <InsertionCode>


>  <Model>
1

>  <AltIds>


>  <MissingHeavyAtoms>
0

>  <ObservedFormula>
O4 S

>  <Name>
SULFATE ION

>  <SystematicName>
sulfate

>  <Synonyms>


>  <Type>
NON-POLYMER

>  <Formula>
O4 S

>  <MolecularWeight>
96.063

>  <ModifiedDate>
2011-06-04

>  <Parent>


>  <OneLetterCode>


>  <SubcomponentList>


>  <AmbiguousFlag>
N

>  <InChI>
InChI=1S/H2O4S/c1-5(2,3)4/h(H2,1,2,3,4)/p-2

>  <InChIKey>
QAOWNCQODCNURD-UHFFFAOYSA-L

>  <SMILES>
[O-]S(=O)(=O)[O-]

$$$$
4EKP_SO4_A_203
  RCSB PDB12061712243D
Coordinates from PDB:4EKP:A:203 Model:1 without hydrogens
  5  4  0  0  0  0            999 V2000
   10.5030   23.9670   26.5710   S 0  0  0  0  0  0  0  0  0  0  0  0
   11.7180   23.9720   25.7590   O 0  0  0  0  0  0  0  0  0  0  0  0
    9.4130   24.5620   25.8060   O 0  0  0  0  0  0  0  0  0  0  0  0
   10.1820   22.5980   26.9540   O 0  5  0  0  0  0  0  0  0  0  0  0
   10.6830   24.7450   27.7920   O 0  5  0  0  0  0  0  0  0  0  0  0
  1  2  2  0  0  0  0
  1  3  2  0  0  0  0
  1  4  1  0  0  0  0
  1  5  1  0  0  0  0
M  CHG  2   4  -1   5  -1
M  END
>  <InstanceId>
4EKP_SO4_A_203

>  <ChemCompId>
SO4

>  <PdbId>
4EKP

>  <ChainId>
A

>  <ResidueNumber>
203

>  <InsertionCode>


>  <Model>
1

>  <AltIds>


>  <MissingHeavyAtoms>
0

>  <ObservedFormula>
O4 S

>  <Name>
SULFATE ION

>  <SystematicName>
sulfate

>  <Synonyms>


>  <Type>
NON-POLYMER

>  <Formula>
O4 S

>  <MolecularWeight>
96.063

>  <ModifiedDate>
2011-06-04

>  <Parent>


>  <OneLetterCode>


>  <SubcomponentList>


>  <AmbiguousFlag>
N

>  <InChI>
InChI=1S/H2O4S/c1-5(2,3)4/h(H2,1,2,3,4)/p-2

>  <InChIKey>
QAOWNCQODCNURD-UHFFFAOYSA-L

>  <SMILES>
[O-]S(=O)(=O)[O-]

$$$$
4EKQ_SO4_A_204
  RCSB PDB12061712243D
Coordinates from PDB:4EKQ:A:204 Model:1 without hydrogens
  5  4  0  0  0  0            999 V2000
   10.9440   23.7190   27.0370   S 0  0  0  0  0  0  0  0  0  0  0  0
   12.2410   23.4930   26.4020   O 0  0  0  0  0  0  0  0  0  0  0  0
   10.0970   24.3800   26.0700   O 0  0  0  0  0  0  0  0  0  0  0  0
   10.4940   22.4040   27.3810   O 0  5  0  0  0  0  0  0  0  0  0  0
   11.0560   24.5300   28.2260   O 0  5  0  0  0  0  0  0  0  0  0  0
  1  2  2  0  0  0  0
  1  3  2  0  0  0  0
  1  4  1  0  0  0  0
  1  5  1  0  0  0  0
M  CHG  2   4  -1   5  -1
M  END
>  <InstanceId>
4EKQ_SO4_A_204

>  <ChemCompId>
SO4

>  <PdbId>
4EKQ

>  <ChainId>
A

>  <ResidueNumber>
204

>  <InsertionCode>


>  <Model>
1

>  <AltIds>


>  <MissingHeavyAtoms>
0

>  <ObservedFormula>
O4 S

>  <Name>
SULFATE ION

>  <SystematicName>
sulfate

>  <Synonyms>


>  <Type>
NON-POLYMER

>  <Formula>
O4 S

>  <MolecularWeight>
96.063

>  <ModifiedDate>
2011-06-04

>  <Parent>


>  <OneLetterCode>


>  <SubcomponentList>


>  <AmbiguousFlag>
N

>  <InChI>
InChI=1S/H2O4S/c1-5(2,3)4/h(H2,1,2,3,4)/p-2

>  <InChIKey>
QAOWNCQODCNURD-UHFFFAOYSA-L

>  <SMILES>
[O-]S(=O)(=O)[O-]

$$$$
4EKR_SO4_A_204
  RCSB PDB12061712243D
Coordinates from PDB:4EKR:A:204 Model:1 without hydrogens
  5  4  0  0  0  0            999 V2000
   10.5530   24.0270   26.6790   S 0  0  0  0  0  0  0  0  0  0  0  0
   11.7630   23.8040   25.8910   O 0  0  0  0  0  0  0  0  0  0  0  0
    9.5970   24.7250   25.8240   O 0  0  0  0  0  0  0  0  0  0  0  0
   10.0440   22.7350   27.0870   O 0  5  0  0  0  0  0  0  0  0  0  0
   10.8470   24.8210   27.8560   O 0  5  0  0  0  0  0  0  0  0  0  0
  1  2  2  0  0  0  0
  1  3  2  0  0  0  0
  1  4  1  0  0  0  0
  1  5  1  0  0  0  0
M  CHG  2   4  -1   5  -1
M  END
>  <InstanceId>
4EKR_SO4_A_204

>  <ChemCompId>
SO4

>  <PdbId>
4EKR

>  <ChainId>
A

>  <ResidueNumber>
204

>  <InsertionCode>


>  <Model>
1

>  <AltIds>


>  <MissingHeavyAtoms>
0

>  <ObservedFormula>
O4 S

>  <Name>
SULFATE ION

>  <SystematicName>
sulfate

>  <Synonyms>


>  <Type>
NON-POLYMER

>  <Formula>
O4 S

>  <MolecularWeight>
96.063

>  <ModifiedDate>
2011-06-04

>  <Parent>


>  <OneLetterCode>


>  <SubcomponentList>


>  <AmbiguousFlag>
N

>  <InChI>
InChI=1S/H2O4S/c1-5(2,3)4/h(H2,1,2,3,4)/p-2

>  <InChIKey>
QAOWNCQODCNURD-UHFFFAOYSA-L

>  <SMILES>
[O-]S(=O)(=O)[O-]

$$$$
4EKS_SO4_A_203
  RCSB PDB12061712243D
Coordinates from PDB:4EKS:A:203 Model:1 without hydrogens
  5  4  0  0  0  0            999 V2000
   -9.6410   13.1150   11.5060   S 0  0  0  0  0  0  0  0  0  0  0  0
   -9.2150   13.7830   10.2830   O 0  0  0  0  0  0  0  0  0  0  0  0
  -10.4830   11.9680   11.1640   O 0  0  0  0  0  0  0  0  0  0  0  0
   -8.4520   12.6760   12.2270   O 0  5  0  0  0  0  0  0  0  0  0  0
  -10.4220   14.0300   12.3330   O 0  5  0  0  0  0  0  0  0  0  0  0
  1  2  2  0  0  0  0
  1  3  2  0  0  0  0
  1  4  1  0  0  0  0
  1  5  1  0  0  0  0
M  CHG  2   4  -1   5  -1
M  END
>  <InstanceId>
4EKS_SO4_A_203

>  <ChemCompId>
SO4

>  <PdbId>
4EKS

>  <ChainId>
A

>  <ResidueNumber>
203

>  <InsertionCode>


>  <Model>
1

>  <AltIds>


>  <MissingHeavyAtoms>
0

>  <ObservedFormula>
O4 S

>  <Name>
SULFATE ION

>  <SystematicName>
sulfate

>  <Synonyms>


>  <Type>
NON-POLYMER

>  <Formula>
O4 S

>  <MolecularWeight>
96.063

>  <ModifiedDate>
2011-06-04

>  <Parent>


>  <OneLetterCode>


>  <SubcomponentList>


>  <AmbiguousFlag>
N

>  <InChI>
InChI=1S/H2O4S/c1-5(2,3)4/h(H2,1,2,3,4)/p-2

>  <InChIKey>
QAOWNCQODCNURD-UHFFFAOYSA-L

>  <SMILES>
[O-]S(=O)(=O)[O-]

$$$$
4I7J_SO4_A_203
  RCSB PDB12061712583D
Coordinates from PDB:4I7J:A:203 Model:1 without hydrogens
  5  4  0  0  0  0            999 V2000
   10.5440   25.0350   26.4310   S 0  0  0  0  0  0  0  0  0  0  0  0
   11.8450   24.7800   25.8290   O 0  0  0  0  0  0  0  0  0  0  0  0
    9.6420   25.5840   25.4210   O 0  0  0  0  0  0  0  0  0  0  0  0
   10.0590   23.7720   26.9510   O 0  5  0  0  0  0  0  0  0  0  0  0
   10.6620   25.9720   27.5310   O 0  5  0  0  0  0  0  0  0  0  0  0
  1  2  2  0  0  0  0
  1  3  2  0  0  0  0
  1  4  1  0  0  0  0
  1  5  1  0  0  0  0
M  CHG  2   4  -1   5  -1
M  END
>  <InstanceId>
4I7J_SO4_A_203

>  <ChemCompId>
SO4

>  <PdbId>
4I7J

>  <ChainId>
A

>  <ResidueNumber>
203

>  <InsertionCode>


>  <Model>
1

>  <AltIds>


>  <MissingHeavyAtoms>
0

>  <ObservedFormula>
O4 S

>  <Name>
SULFATE ION

>  <SystematicName>
sulfate

>  <Synonyms>


>  <Type>
NON-POLYMER

>  <Formula>
O4 S

>  <MolecularWeight>
96.063

>  <ModifiedDate>
2011-06-04

>  <Parent>


>  <OneLetterCode>


>  <SubcomponentList>


>  <AmbiguousFlag>
N

>  <InChI>
InChI=1S/H2O4S/c1-5(2,3)4/h(H2,1,2,3,4)/p-2

>  <InChIKey>
QAOWNCQODCNURD-UHFFFAOYSA-L

>  <SMILES>
[O-]S(=O)(=O)[O-]

$$$$
4I7K_SO4_A_203
  RCSB PDB12061712583D
Coordinates from PDB:4I7K:A:203 Model:1 without hydrogens
  5  4  0  0  0  0            999 V2000
   10.5380   24.9570   26.7990   S 0  0  0  0  0  0  0  0  0  0  0  0
   11.7690   24.9390   26.0170   O 0  0  0  0  0  0  0  0  0  0  0  0
    9.4920   25.5810   25.9940   O 0  0  0  0  0  0  0  0  0  0  0  0
   10.1930   23.5960   27.1870   O 0  5  0  0  0  0  0  0  0  0  0  0
   10.7090   25.7240   28.0220   O 0  5  0  0  0  0  0  0  0  0  0  0
  1  2  2  0  0  0  0
  1  3  2  0  0  0  0
  1  4  1  0  0  0  0
  1  5  1  0  0  0  0
M  CHG  2   4  -1   5  -1
M  END
>  <InstanceId>
4I7K_SO4_A_203

>  <ChemCompId>
SO4

>  <PdbId>
4I7K

>  <ChainId>
A

>  <ResidueNumber>
203

>  <InsertionCode>


>  <Model>
1

>  <AltIds>


>  <MissingHeavyAtoms>
0

>  <ObservedFormula>
O4 S

>  <Name>
SULFATE ION

>  <SystematicName>
sulfate

>  <Synonyms>


>  <Type>
NON-POLYMER

>  <Formula>
O4 S

>  <MolecularWeight>
96.063

>  <ModifiedDate>
2011-06-04

>  <Parent>


>  <OneLetterCode>


>  <SubcomponentList>


>  <AmbiguousFlag>
N

>  <InChI>
InChI=1S/H2O4S/c1-5(2,3)4/h(H2,1,2,3,4)/p-2

>  <InChIKey>
QAOWNCQODCNURD-UHFFFAOYSA-L

>  <SMILES>
[O-]S(=O)(=O)[O-]

$$$$
4I7L_SO4_A_203
  RCSB PDB12061712583D
Coordinates from PDB:4I7L:A:203 Model:1 without hydrogens
  5  4  0  0  0  0            999 V2000
   10.4400   25.5880   26.5330   S 0  0  0  0  0  0  0  0  0  0  0  0
   11.5540   25.4110   25.6110   O 0  0  0  0  0  0  0  0  0  0  0  0
    9.3440   26.2070   25.7950   O 0  0  0  0  0  0  0  0  0  0  0  0
   10.1000   24.2880   27.0730   O 0  5  0  0  0  0  0  0  0  0  0  0
   10.7680   26.4700   27.6400   O 0  5  0  0  0  0  0  0  0  0  0  0
  1  2  2  0  0  0  0
  1  3  2  0  0  0  0
  1  4  1  0  0  0  0
  1  5  1  0  0  0  0
M  CHG  2   4  -1   5  -1
M  END
>  <InstanceId>
4I7L_SO4_A_203

>  <ChemCompId>
SO4

>  <PdbId>
4I7L

>  <ChainId>
A

>  <ResidueNumber>
203

>  <InsertionCode>


>  <Model>
1

>  <AltIds>


>  <MissingHeavyAtoms>
0

>  <ObservedFormula>
O4 S

>  <Name>
SULFATE ION

>  <SystematicName>
sulfate

>  <Synonyms>


>  <Type>
NON-POLYMER

>  <Formula>
O4 S

>  <MolecularWeight>
96.063

>  <ModifiedDate>
2011-06-04

>  <Parent>


>  <OneLetterCode>


>  <SubcomponentList>


>  <AmbiguousFlag>
N

>  <InChI>
InChI=1S/H2O4S/c1-5(2,3)4/h(H2,1,2,3,4)/p-2

>  <InChIKey>
QAOWNCQODCNURD-UHFFFAOYSA-L

>  <SMILES>
[O-]S(=O)(=O)[O-]

$$$$
4I7M_SO4_A_203
  RCSB PDB12061712583D
Coordinates from PDB:4I7M:A:203 Model:1 without hydrogens
  5  4  0  0  0  0            999 V2000
   10.4980   23.6150   26.4380   S 0  0  0  0  0  0  0  0  0  0  0  0
   11.6570   23.4910   25.5650   O 0  0  0  0  0  0  0  0  0  0  0  0
    9.4560   24.2710   25.6500   O 0  0  0  0  0  0  0  0  0  0  0  0
   10.1270   22.2880   26.8780   O 0  5  0  0  0  0  0  0  0  0  0  0
   10.8890   24.4520   27.5430   O 0  5  0  0  0  0  0  0  0  0  0  0
  1  2  2  0  0  0  0
  1  3  2  0  0  0  0
  1  4  1  0  0  0  0
  1  5  1  0  0  0  0
M  CHG  2   4  -1   5  -1
M  END
>  <InstanceId>
4I7M_SO4_A_203

>  <ChemCompId>
SO4

>  <PdbId>
4I7M

>  <ChainId>
A

>  <ResidueNumber>
203

>  <InsertionCode>


>  <Model>
1

>  <AltIds>


>  <MissingHeavyAtoms>
0

>  <ObservedFormula>
O4 S

>  <Name>
SULFATE ION

>  <SystematicName>
sulfate

>  <Synonyms>


>  <Type>
NON-POLYMER

>  <Formula>
O4 S

>  <MolecularWeight>
96.063

>  <ModifiedDate>
2011-06-04

>  <Parent>


>  <OneLetterCode>


>  <SubcomponentList>


>  <AmbiguousFlag>
N

>  <InChI>
InChI=1S/H2O4S/c1-5(2,3)4/h(H2,1,2,3,4)/p-2

>  <InChIKey>
QAOWNCQODCNURD-UHFFFAOYSA-L

>  <SMILES>
[O-]S(=O)(=O)[O-]

$$$$
4I7N_SO4_A_203
  RCSB PDB12061712583D
Coordinates from PDB:4I7N:A:203 Model:1 without hydrogens
  5  4  0  0  0  0            999 V2000
   10.6480   24.0660   26.4590   S 0  0  0  0  0  0  0  0  0  0  0  0
   11.9030   23.9320   25.7320   O 0  0  0  0  0  0  0  0  0  0  0  0
    9.6760   24.7360   25.5860   O 0  0  0  0  0  0  0  0  0  0  0  0
   10.2350   22.7330   26.8630   O 0  5  0  0  0  0  0  0  0  0  0  0
   10.7920   24.8420   27.6870   O 0  5  0  0  0  0  0  0  0  0  0  0
  1  2  2  0  0  0  0
  1  3  2  0  0  0  0
  1  4  1  0  0  0  0
  1  5  1  0  0  0  0
M  CHG  2   4  -1   5  -1
M  END
>  <InstanceId>
4I7N_SO4_A_203

>  <ChemCompId>
SO4

>  <PdbId>
4I7N

>  <ChainId>
A

>  <ResidueNumber>
203

>  <InsertionCode>


>  <Model>
1

>  <AltIds>


>  <MissingHeavyAtoms>
0

>  <ObservedFormula>
O4 S

>  <Name>
SULFATE ION

>  <SystematicName>
sulfate

>  <Synonyms>


>  <Type>
NON-POLYMER

>  <Formula>
O4 S

>  <MolecularWeight>
96.063

>  <ModifiedDate>
2011-06-04

>  <Parent>


>  <OneLetterCode>


>  <SubcomponentList>


>  <AmbiguousFlag>
N

>  <InChI>
InChI=1S/H2O4S/c1-5(2,3)4/h(H2,1,2,3,4)/p-2

>  <InChIKey>
QAOWNCQODCNURD-UHFFFAOYSA-L

>  <SMILES>
[O-]S(=O)(=O)[O-]

$$$$
4I7O_SO4_A_203
  RCSB PDB12061712583D
Coordinates from PDB:4I7O:A:203 Model:1 without hydrogens
  5  4  0  0  0  0            999 V2000
   10.4910   24.0100   26.6330   S 0  0  0  0  0  0  0  0  0  0  0  0
   11.7130   23.9040   25.8420   O 0  0  0  0  0  0  0  0  0  0  0  0
    9.4710   24.6930   25.8410   O 0  0  0  0  0  0  0  0  0  0  0  0
   10.0400   22.6740   27.0020   O 0  5  0  0  0  0  0  0  0  0  0  0
   10.7390   24.7740   27.8490   O 0  5  0  0  0  0  0  0  0  0  0  0
  1  2  2  0  0  0  0
  1  3  2  0  0  0  0
  1  4  1  0  0  0  0
  1  5  1  0  0  0  0
M  CHG  2   4  -1   5  -1
M  END
>  <InstanceId>
4I7O_SO4_A_203

>  <ChemCompId>
SO4

>  <PdbId>
4I7O

>  <ChainId>
A

>  <ResidueNumber>
203

>  <InsertionCode>


>  <Model>
1

>  <AltIds>


>  <MissingHeavyAtoms>
0

>  <ObservedFormula>
O4 S

>  <Name>
SULFATE ION

>  <SystematicName>
sulfate

>  <Synonyms>


>  <Type>
NON-POLYMER

>  <Formula>
O4 S

>  <MolecularWeight>
96.063

>  <ModifiedDate>
2011-06-04

>  <Parent>


>  <OneLetterCode>


>  <SubcomponentList>


>  <AmbiguousFlag>
N

>  <InChI>
InChI=1S/H2O4S/c1-5(2,3)4/h(H2,1,2,3,4)/p-2

>  <InChIKey>
QAOWNCQODCNURD-UHFFFAOYSA-L

>  <SMILES>
[O-]S(=O)(=O)[O-]

$$$$
4I7P_SO4_A_203
  RCSB PDB12061712583D
Coordinates from PDB:4I7P:A:203 Model:1 without hydrogens
  5  4  0  0  0  0            999 V2000
   10.4860   24.1540   26.4970   S 0  0  0  0  0  0  0  0  0  0  0  0
   11.6080   23.9640   25.5820   O 0  0  0  0  0  0  0  0  0  0  0  0
    9.4190   24.8650   25.7960   O 0  0  0  0  0  0  0  0  0  0  0  0
    9.9820   22.8720   26.9580   O 0  5  0  0  0  0  0  0  0  0  0  0
   10.9260   24.9190   27.6520   O 0  5  0  0  0  0  0  0  0  0  0  0
  1  2  2  0  0  0  0
  1  3  2  0  0  0  0
  1  4  1  0  0  0  0
  1  5  1  0  0  0  0
M  CHG  2   4  -1   5  -1
M  END
>  <InstanceId>
4I7P_SO4_A_203

>  <ChemCompId>
SO4

>  <PdbId>
4I7P

>  <ChainId>
A

>  <ResidueNumber>
203

>  <InsertionCode>


>  <Model>
1

>  <AltIds>


>  <MissingHeavyAtoms>
0

>  <ObservedFormula>
O4 S

>  <Name>
SULFATE ION

>  <SystematicName>
sulfate

>  <Synonyms>


>  <Type>
NON-POLYMER

>  <Formula>
O4 S

>  <MolecularWeight>
96.063

>  <ModifiedDate>
2011-06-04

>  <Parent>


>  <OneLetterCode>


>  <SubcomponentList>


>  <AmbiguousFlag>
N

>  <InChI>
InChI=1S/H2O4S/c1-5(2,3)4/h(H2,1,2,3,4)/p-2

>  <InChIKey>
QAOWNCQODCNURD-UHFFFAOYSA-L

>  <SMILES>
[O-]S(=O)(=O)[O-]

$$$$
4I7Q_SO4_A_203
  RCSB PDB12061712583D
Coordinates from PDB:4I7Q:A:203 Model:1 without hydrogens
  5  4  0  0  0  0            999 V2000
    0.7180   18.7690   13.2260   S 0  0  0  0  0  0  0  0  0  0  0  0
    1.3910   19.0940   11.9710   O 0  0  0  0  0  0  0  0  0  0  0  0
   -0.6840   18.4500   12.9600   O 0  0  0  0  0  0  0  0  0  0  0  0
    1.3620   17.6100   13.8360   O 0  5  0  0  0  0  0  0  0  0  0  0
    0.7810   19.9130   14.1270   O 0  5  0  0  0  0  0  0  0  0  0  0
  1  2  2  0  0  0  0
  1  3  2  0  0  0  0
  1  4  1  0  0  0  0
  1  5  1  0  0  0  0
M  CHG  2   4  -1   5  -1
M  END
>  <InstanceId>
4I7Q_SO4_A_203

>  <ChemCompId>
SO4

>  <PdbId>
4I7Q

>  <ChainId>
A

>  <ResidueNumber>
203

>  <InsertionCode>


>  <Model>
1

>  <AltIds>


>  <MissingHeavyAtoms>
0

>  <ObservedFormula>
O4 S

>  <Name>
SULFATE ION

>  <SystematicName>
sulfate

>  <Synonyms>


>  <Type>
NON-POLYMER

>  <Formula>
O4 S

>  <MolecularWeight>
96.063

>  <ModifiedDate>
2011-06-04

>  <Parent>


>  <OneLetterCode>


>  <SubcomponentList>


>  <AmbiguousFlag>
N

>  <InChI>
InChI=1S/H2O4S/c1-5(2,3)4/h(H2,1,2,3,4)/p-2

>  <InChIKey>
QAOWNCQODCNURD-UHFFFAOYSA-L

>  <SMILES>
[O-]S(=O)(=O)[O-]

$$$$
4I7R_SO4_A_204
  RCSB PDB12061712583D
Coordinates from PDB:4I7R:A:204 Model:1 without hydrogens
  5  4  0  0  0  0            999 V2000
   10.5360   24.3230   26.4190   S 0  0  0  0  0  0  0  0  0  0  0  0
   11.5150   24.0720   25.3740   O 0  0  0  0  0  0  0  0  0  0  0  0
    9.4310   25.0560   25.8110   O 0  0  0  0  0  0  0  0  0  0  0  0
   10.1020   23.0480   26.9580   O 0  5  0  0  0  0  0  0  0  0  0  0
   11.1120   25.1170   27.4920   O 0  5  0  0  0  0  0  0  0  0  0  0
  1  2  2  0  0  0  0
  1  3  2  0  0  0  0
  1  4  1  0  0  0  0
  1  5  1  0  0  0  0
M  CHG  2   4  -1   5  -1
M  END
>  <InstanceId>
4I7R_SO4_A_204

>  <ChemCompId>
SO4

>  <PdbId>
4I7R

>  <ChainId>
A

>  <ResidueNumber>
204

>  <InsertionCode>


>  <Model>
1

>  <AltIds>


>  <MissingHeavyAtoms>
0

>  <ObservedFormula>
O4 S

>  <Name>
SULFATE ION

>  <SystematicName>
sulfate

>  <Synonyms>


>  <Type>
NON-POLYMER

>  <Formula>
O4 S

>  <MolecularWeight>
96.063

>  <ModifiedDate>
2011-06-04

>  <Parent>


>  <OneLetterCode>


>  <SubcomponentList>


>  <AmbiguousFlag>
N

>  <InChI>
InChI=1S/H2O4S/c1-5(2,3)4/h(H2,1,2,3,4)/p-2

>  <InChIKey>
QAOWNCQODCNURD-UHFFFAOYSA-L

>  <SMILES>
[O-]S(=O)(=O)[O-]

$$$$
4I7S_SO4_A_203
  RCSB PDB12061712583D
Coordinates from PDB:4I7S:A:203 Model:1 without hydrogens
  5  4  0  0  0  0            999 V2000
   10.6000   24.1670   26.5220   S 0  0  0  0  0  0  0  0  0  0  0  0
   11.6360   23.9560   25.5160   O 0  0  0  0  0  0  0  0  0  0  0  0
    9.4730   24.8330   25.8800   O 0  0  0  0  0  0  0  0  0  0  0  0
   10.2220   22.8730   27.0620   O 0  5  0  0  0  0  0  0  0  0  0  0
   11.0740   24.9960   27.6090   O 0  5  0  0  0  0  0  0  0  0  0  0
  1  2  2  0  0  0  0
  1  3  2  0  0  0  0
  1  4  1  0  0  0  0
  1  5  1  0  0  0  0
M  CHG  2   4  -1   5  -1
M  END
>  <InstanceId>
4I7S_SO4_A_203

>  <ChemCompId>
SO4

>  <PdbId>
4I7S

>  <ChainId>
A

>  <ResidueNumber>
203

>  <InsertionCode>


>  <Model>
1

>  <AltIds>


>  <MissingHeavyAtoms>
0

>  <ObservedFormula>
O4 S

>  <Name>
SULFATE ION

>  <SystematicName>
sulfate

>  <Synonyms>


>  <Type>
NON-POLYMER

>  <Formula>
O4 S

>  <MolecularWeight>
96.063

>  <ModifiedDate>
2011-06-04

>  <Parent>


>  <OneLetterCode>


>  <SubcomponentList>


>  <AmbiguousFlag>
N

>  <InChI>
InChI=1S/H2O4S/c1-5(2,3)4/h(H2,1,2,3,4)/p-2

>  <InChIKey>
QAOWNCQODCNURD-UHFFFAOYSA-L

>  <SMILES>
[O-]S(=O)(=O)[O-]

$$$$
4I7T_SO4_A_203
  RCSB PDB12061712583D
Coordinates from PDB:4I7T:A:203 Model:1 without hydrogens
  5  4  0  0  0  0            999 V2000
   10.6420   24.5500   26.5610   S 0  0  0  0  0  0  0  0  0  0  0  0
   11.8830   24.4470   25.8160   O 0  0  0  0  0  0  0  0  0  0  0  0
    9.6500   25.2250   25.7060   O 0  0  0  0  0  0  0  0  0  0  0  0
   10.3100   23.2060   26.9380   O 0  5  0  0  0  0  0  0  0  0  0  0
   10.7840   25.3210   27.7820   O 0  5  0  0  0  0  0  0  0  0  0  0
  1  2  2  0  0  0  0
  1  3  2  0  0  0  0
  1  4  1  0  0  0  0
  1  5  1  0  0  0  0
M  CHG  2   4  -1   5  -1
M  END
>  <InstanceId>
4I7T_SO4_A_203

>  <ChemCompId>
SO4

>  <PdbId>
4I7T

>  <ChainId>
A

>  <ResidueNumber>
203

>  <InsertionCode>


>  <Model>
1

>  <AltIds>


>  <MissingHeavyAtoms>
0

>  <ObservedFormula>
O4 S

>  <Name>
SULFATE ION

>  <SystematicName>
sulfate

>  <Synonyms>


>  <Type>
NON-POLYMER

>  <Formula>
O4 S

>  <MolecularWeight>
96.063

>  <ModifiedDate>
2011-06-04

>  <Parent>


>  <OneLetterCode>


>  <SubcomponentList>


>  <AmbiguousFlag>
N

>  <InChI>
InChI=1S/H2O4S/c1-5(2,3)4/h(H2,1,2,3,4)/p-2

>  <InChIKey>
QAOWNCQODCNURD-UHFFFAOYSA-L

>  <SMILES>
[O-]S(=O)(=O)[O-]

$$$$
3GUI_TAM_A_167
  RCSB PDB12061708473D
Coordinates from PDB:3GUI:A:167 Model:1 without hydrogens
 11 10  0  0  0  0            999 V2000
   19.1560    5.1140   54.0580   C 0  0  0  0  0  0  0  0  0  0  0  0
   17.9700    6.0300   54.4140   C 0  0  0  0  0  0  0  0  0  0  0  0
   18.6670    3.8880   53.3050   C 0  0  0  0  0  0  0  0  0  0  0  0
   20.0510    4.6630   55.2290   C 0  0  0  0  0  0  0  0  0  0  0  0
   16.9870    5.5630   55.4860   C 0  0  0  0  0  0  0  0  0  0  0  0
   18.0920    4.1720   51.9210   C 0  0  0  0  0  0  0  0  0  0  0  0
   20.6180    5.7300   56.1690   C 0  0  0  0  0  0  0  0  0  0  0  0
   19.9930    5.8190   53.1070   N 0  0  0  0  0  0  0  0  0  0  0  0
   17.3780    6.0110   56.7920   O 0  0  0  0  0  0  0  0  0  0  0  0
   16.6690    3.9900   51.9640   O 0  0  0  0  0  0  0  0  0  0  0  0
   22.0490    5.6750   56.2410   O 0  0  0  0  0  0  0  0  0  0  0  0
  1  2  1  0  0  0  0
  1  3  1  0  0  0  0
  1  4  1  0  0  0  0
  1  8  1  0  0  0  0
  2  5  1  0  0  0  0
  3  6  1  0  0  0  0
  4  7  1  0  0  0  0
  5  9  1  0  0  0  0
  6 10  1  0  0  0  0
  7 11  1  0  0  0  0
M  END
>  <InstanceId>
3GUI_TAM_A_167

>  <ChemCompId>
TAM

>  <PdbId>
3GUI

>  <ChainId>
A

>  <ResidueNumber>
167

>  <InsertionCode>


>  <Model>
1

>  <AltIds>


>  <MissingHeavyAtoms>
0

>  <ObservedFormula>
C7 N O3

>  <Name>
TRIS(HYDROXYETHYL)AMINOMETHANE

>  <SystematicName>
3-amino-3-(2-hydroxyethyl)pentane-1,5-diol

>  <Synonyms>


>  <Type>
NON-POLYMER

>  <Formula>
C7 H17 N O3

>  <MolecularWeight>
163.215

>  <ModifiedDate>
2011-06-04

>  <Parent>


>  <OneLetterCode>


>  <SubcomponentList>


>  <AmbiguousFlag>
N

>  <InChI>
InChI=1S/C7H17NO3/c8-7(1-4-9,2-5-10)3-6-11/h9-11H,1-6,8H2

>  <InChIKey>
GKODZWOPPOTFGA-UHFFFAOYSA-N

>  <SMILES>
C(CO)C(CCO)(CCO)N

$$$$
1C6E_XE_A_500
  RCSB PDB12061702093D
Coordinates from PDB:1C6E:A:500 Model:1 without hydrogens
  1  0  0  0  0  0            999 V2000
   25.9860    5.2440    4.4460  Xe 0  0  0  0  0  0  0  0  0  0  0  0
M  END
>  <InstanceId>
1C6E_XE_A_500

>  <ChemCompId>
XE

>  <PdbId>
1C6E

>  <ChainId>
A

>  <ResidueNumber>
500

>  <InsertionCode>


>  <Model>
1

>  <AltIds>


>  <MissingHeavyAtoms>
0

>  <ObservedFormula>
Xe

>  <Name>
XENON

>  <SystematicName>
xenon

>  <Synonyms>


>  <Type>
NON-POLYMER

>  <Formula>
Xe

>  <MolecularWeight>
131.293

>  <ModifiedDate>
2011-06-04

>  <Parent>


>  <OneLetterCode>


>  <SubcomponentList>


>  <AmbiguousFlag>
N

>  <InChI>
InChI=1S/Xe

>  <InChIKey>
FHNFHKCVQCLJFQ-UHFFFAOYSA-N

>  <SMILES>
[Xe]

$$$$
1C6H_XE_A_500
  RCSB PDB12061702093D
Coordinates from PDB:1C6H:A:500 Model:1 without hydrogens
  1  0  0  0  0  0            999 V2000
   25.9590    5.2540    4.4000  Xe 0  0  0  0  0  0  0  0  0  0  0  0
M  END
>  <InstanceId>
1C6H_XE_A_500

>  <ChemCompId>
XE

>  <PdbId>
1C6H

>  <ChainId>
A

>  <ResidueNumber>
500

>  <InsertionCode>


>  <Model>
1

>  <AltIds>


>  <MissingHeavyAtoms>
0

>  <ObservedFormula>
Xe

>  <Name>
XENON

>  <SystematicName>
xenon

>  <Synonyms>


>  <Type>
NON-POLYMER

>  <Formula>
Xe

>  <MolecularWeight>
131.293

>  <ModifiedDate>
2011-06-04

>  <Parent>


>  <OneLetterCode>


>  <SubcomponentList>


>  <AmbiguousFlag>
N

>  <InChI>
InChI=1S/Xe

>  <InChIKey>
FHNFHKCVQCLJFQ-UHFFFAOYSA-N

>  <SMILES>
[Xe]

$$$$
1C6K_XE_A_500
  RCSB PDB12061702093D
Coordinates from PDB:1C6K:A:500 Model:1 without hydrogens
  1  0  0  0  0  0            999 V2000
   26.0400    5.2180    4.3810  Xe 0  0  0  0  0  0  0  0  0  0  0  0
M  END
>  <InstanceId>
1C6K_XE_A_500

>  <ChemCompId>
XE

>  <PdbId>
1C6K

>  <ChainId>
A

>  <ResidueNumber>
500

>  <InsertionCode>


>  <Model>
1

>  <AltIds>


>  <MissingHeavyAtoms>
0

>  <ObservedFormula>
Xe

>  <Name>
XENON

>  <SystematicName>
xenon

>  <Synonyms>


>  <Type>
NON-POLYMER

>  <Formula>
Xe

>  <MolecularWeight>
131.293

>  <ModifiedDate>
2011-06-04

>  <Parent>


>  <OneLetterCode>


>  <SubcomponentList>


>  <AmbiguousFlag>
N

>  <InChI>
InChI=1S/Xe

>  <InChIKey>
FHNFHKCVQCLJFQ-UHFFFAOYSA-N

>  <SMILES>
[Xe]

$$$$
1C6N_XE_A_500
  RCSB PDB12061702093D
Coordinates from PDB:1C6N:A:500 Model:1 without hydrogens
  1  0  0  0  0  0            999 V2000
   26.0740    5.1550    4.2980  Xe 0  0  0  0  0  0  0  0  0  0  0  0
M  END
>  <InstanceId>
1C6N_XE_A_500

>  <ChemCompId>
XE

>  <PdbId>
1C6N

>  <ChainId>
A

>  <ResidueNumber>
500

>  <InsertionCode>


>  <Model>
1

>  <AltIds>


>  <MissingHeavyAtoms>
0

>  <ObservedFormula>
Xe

>  <Name>
XENON

>  <SystematicName>
xenon

>  <Synonyms>


>  <Type>
NON-POLYMER

>  <Formula>
Xe

>  <MolecularWeight>
131.293

>  <ModifiedDate>
2011-06-04

>  <Parent>


>  <OneLetterCode>


>  <SubcomponentList>


>  <AmbiguousFlag>
N

>  <InChI>
InChI=1S/Xe

>  <InChIKey>
FHNFHKCVQCLJFQ-UHFFFAOYSA-N

>  <SMILES>
[Xe]

$$$$
2OTY_YAN_X_305
  RCSB PDB12061706333D
Coordinates from PDB:2OTY:X:305 Model:1 without hydrogens
  8  8  0  0  0  0            999 V2000
  -23.2690   26.1520   -6.2820  Cl 0  0  0  0  0  0  0  0  0  0  0  0
  -22.8920   25.5320   -4.7110   C 0  0  0  0  0  0  0  0  0  0  0  0
  -23.3710   24.2730   -4.3440   C 0  0  0  0  0  0  0  0  0  0  0  0
  -23.0750   23.7530   -3.0840   C 0  0  0  0  0  0  0  0  0  0  0  0
  -22.3080   24.4910   -2.1850   C 0  0  0  0  0  0  0  0  0  0  0  0
  -21.8330   25.7490   -2.5480   C 0  0  0  0  0  0  0  0  0  0  0  0
  -22.1260   26.2760   -3.8080   C 0  0  0  0  0  0  0  0  0  0  0  0
  -21.5230   27.8440   -4.2360  Cl 0  0  0  0  0  0  0  0  0  0  0  0
  1  2  1  0  0  0  0
  2  3  2  0  0  0  0
  2  7  1  0  0  0  0
  3  4  1  0  0  0  0
  4  5  2  0  0  0  0
  5  6  1  0  0  0  0
  6  7  2  0  0  0  0
  7  8  1  0  0  0  0
M  END
>  <InstanceId>
2OTY_YAN_X_305

>  <ChemCompId>
YAN

>  <PdbId>
2OTY

>  <ChainId>
X

>  <ResidueNumber>
305

>  <InsertionCode>


>  <Model>
1

>  <AltIds>


>  <MissingHeavyAtoms>
0

>  <ObservedFormula>
C6 Cl2

>  <Name>
1,2-DICHLOROBENZENE

>  <SystematicName>
1,2-dichlorobenzene

>  <Synonyms>


>  <Type>
NON-POLYMER

>  <Formula>
C6 H4 Cl2

>  <MolecularWeight>
147.002

>  <ModifiedDate>
2011-06-04

>  <Parent>


>  <OneLetterCode>


>  <SubcomponentList>


>  <AmbiguousFlag>


>  <InChI>
InChI=1S/C6H4Cl2/c7-5-3-1-2-4-6(5)8/h1-4H

>  <InChIKey>
RFFLAFLAYFXFSW-UHFFFAOYSA-N

>  <SMILES>
c1ccc(c(c1)Cl)Cl

$$$$
